LTspice 24.1.9 for Windows
Circuit: C:\Users\German\Documents\placa_prueba_bq24780s\Simulaciones\modulo_descarga\modulo_descarga.net
Start Time: Wed Aug 27 19:59:02 2025
solver = Normal
Maximum thread count: 8
tnom = 27
temp = 27
method = trap
Direct Newton iteration failed to find .op point.  (Use ".option noopiter" to skip.)
Starting Gmin stepping
Gmin = 10
Gmin = 1.07374
Gmin = 0.115292
Gmin = 0.0123794
Gmin = 0.00132923
Gmin = 0.000142725
vernier = 0.5
vernier = 0.25
vernier = 0.125
Gmin = 8.33655e-05
vernier = 0.0625
vernier = 0.03125
vernier = 0.015625
vernier = 0.0078125
Gmin = 8.4972e-05
vernier = 0.0104167
vernier = 0.0138889
Gmin = 8.28803e-05
vernier = 0.0185185
Gmin = 7.95966e-05
vernier = 0.0246913
vernier = 0.0329218
Gmin = 7.4503e-05
vernier = 0.0438957
vernier = 0.0585276
Gmin = 6.71036e-05
vernier = 0.0780367
Gmin = 5.66562e-05
vernier = 0.104049
vernier = 0.138732
Gmin = 4.30051e-05
vernier = 0.184976
vernier = 0.246634
Gmin = 2.78814e-05
vernier = 0.328846
Gmin = 1.39261e-05
vernier = 0.438461
vernier = 0.584614
Gmin = 4.57883e-06
vernier = 0.779486
vernier = 1
Gmin = 8.35968e-07
Gmin = 8.97614e-08
vernier = 0.5
vernier = 0.25
vernier = 0.125
vernier = 0.0625
vernier = 0.03125
vernier = 0.015625
vernier = 0.0078125
Gmin = 5.74473e-08
vernier = 0.00390625
vernier = 0.00195312
vernier = 0.000976562
vernier = 0.000488281
Gmin = 0
Gmin stepping failed

Starting source stepping with srcstepmethod=0
Source Step = 3.0303%
Source Step = 33.3333%
Source Step = 63.6364%
Source Step = 88.6364%
vernier = 0.0625
Source Step = 87.8995%
Starting source stepping with srcstepmethod=1
Source Step = 3.0303%
Source Step = 33.3333%
Source Step = 63.6364%
Source Step = 88.6364%
vernier = 0.0625
Source stepping failed

Pseudo Transient succeeded in finding the operating point at 2.31279 s.
Total elapsed time: 1.651 seconds.

Files loaded:
C:\Users\German\Documents\placa_prueba_bq24780s\Simulaciones\modulo_descarga\modulo_descarga.net
C:\Users\German\AppData\Local\LTspice\lib\cmp\standard.bjt
C:\Users\German\Documents\placa_prueba_bq24780s\Simulaciones\modulo_descarga\lmx58_lm2904.lib
C:\Users\German\Documents\placa_prueba_bq24780s\Simulaciones\modulo_descarga\CSD17308Q3.lib

