LTspice 24.1.9 for Windows
Circuit: C:\Users\German\Documents\placa_prueba_bq24780s\Simulaciones\modulo_descarga\modulo_descarga_aol.net
Start Time: Wed Aug 20 20:11:43 2025
solver = Normal
Maximum thread count: 8
tnom = 27
temp = 27
method = trap
Model "pmosd": Oxide thickness thinner than recommended for a level 1 MOSFET.
Instance "m1:M2": Length shorter than recommended for a level 1 MOSFET.
Direct Newton iteration failed to find .op point.  (Use ".option noopiter" to skip.)
Starting Gmin stepping
Gmin = 10
Gmin = 1.07374
Gmin = 0.115292
Gmin = 0.0123794
Gmin = 0.00132923
Gmin = 0.000142725
vernier = 0.5
vernier = 0.25
vernier = 0.125
Gmin = 8.58917e-05
vernier = 0.0625
vernier = 0.03125
vernier = 0.015625
vernier = 0.0078125
Gmin = 8.67045e-05
vernier = 0.0104167
Gmin = 8.46983e-05
vernier = 0.0138889
vernier = 0.0185185
Gmin = 8.14364e-05
vernier = 0.0246913
vernier = 0.0329218
Gmin = 7.64983e-05
vernier = 0.0438957
Gmin = 6.93382e-05
vernier = 0.0585276
vernier = 0.0780367
Gmin = 5.88243e-05
vernier = 0.104049
vernier = 0.138732
Gmin = 4.53153e-05
vernier = 0.184976
Gmin = 3.01452e-05
vernier = 0.246634
vernier = 0.328846
Gmin = 1.53483e-05
vernier = 0.438461
vernier = 0.584614
Gmin = 5.34461e-06
vernier = 0.779486
Gmin = 1.06419e-06
vernier = 1
Gmin = 1.14266e-07
vernier = 0.5
vernier = 0.25
vernier = 0.125
vernier = 0.0625
vernier = 0.03125
Gmin = 4.68034e-08
vernier = 0.015625
vernier = 0.0078125
vernier = 0.00390625
vernier = 0.00195312
vernier = 0.000976562
vernier = 0.000488281
Gmin = 0
Gmin stepping failed

Starting source stepping with srcstepmethod=0
Source Step = 3.0303%
Source Step = 33.3333%
Source Step = 63.6364%
Source Step = 88.6364%
vernier = 0.0625
Source Step = 87.8995%
Source Step = 87.9291%
Source Step = 87.9587%
Source Step = 87.9883%
Source Step = 88.0179%
Source Step = 88.0475%
vernier = 0.00146484
Source Step = 88.0904%
Source Step = 88.1348%
Source Step = 88.1792%
Source Step = 88.2235%
Source Step = 88.2679%
vernier = 0.00219727
Source Step = 88.3301%
Source Step = 88.3967%
Source Step = 88.4632%
Source Step = 88.5298%
Source Step = 88.5964%
vernier = 0.0032959
Source Step = 88.6863%
Source Step = 88.7862%
Source Step = 88.8861%
Source Step = 88.9859%
Source Step = 89.0858%
vernier = 0.00494385
Source Step = 89.2156%
Source Step = 89.3655%
Source Step = 89.5153%
Source Step = 89.6651%
Source Step = 89.8149%
vernier = 0.00741577
Source Step = 90.0022%
Source Step = 90.1876%
Source Step = 90.2437%
Source Step = 90.2999%
Source Step = 90.3561%
Source Step = 90.4123%
Source Step = 90.4685%
Source Step = 90.5246%
Source Step = 90.5808%
Source Step = 90.637%
Source Step = 90.6932%
Source Step = 90.7494%
Source Step = 90.8055%
Source Step = 90.8617%
Source Step = 90.9179%
Source Step = 90.9741%
Source Step = 91.0303%
Source Step = 91.0864%
Source Step = 91.1426%
Source Step = 91.1988%
Source Step = 91.255%
Source Step = 91.3112%
Source Step = 91.3673%
Source Step = 91.4235%
Source Step = 91.4797%
Source Step = 91.5359%
Source Step = 91.5921%
Source Step = 91.6482%
Source Step = 91.7044%
Source Step = 91.7606%
Source Step = 91.8168%
Source Step = 91.873%
Source Step = 91.9291%
Source Step = 91.9853%
Source Step = 92.0415%
Source Step = 92.0977%
Source Step = 92.1539%
Source Step = 92.21%
Source Step = 92.2662%
Source Step = 92.3224%
Source Step = 92.3786%
Source Step = 92.4348%
Source Step = 92.4909%
Source Step = 92.5471%
Source Step = 92.6033%
Source Step = 92.6595%
Source Step = 92.7157%
Source Step = 92.7718%
Source Step = 92.828%
Source Step = 92.8842%
Source Step = 92.9404%
Source Step = 92.9966%
Source Step = 93.0527%
Source Step = 93.1089%
Source Step = 93.1651%
Source Step = 93.2213%
Source Step = 93.2775%
Source Step = 93.3336%
Source Step = 93.3898%
Source Step = 93.446%
Source Step = 93.5022%
Source Step = 93.5584%
Source Step = 93.6145%
Source Step = 93.6707%
Source Step = 93.7269%
Source Step = 93.7831%
Source Step = 93.8393%
Source Step = 93.8954%
Source Step = 93.9516%
Source Step = 94.0078%
Source Step = 94.064%
Source Step = 94.1202%
Source Step = 94.1763%
Source Step = 94.2325%
Source Step = 94.2887%
Source Step = 94.3449%
Source Step = 94.4011%
Source Step = 94.4572%
Source Step = 94.5134%
Source Step = 94.5696%
Source Step = 94.6258%
Source Step = 94.682%
Source Step = 94.7381%
Source Step = 94.7943%
Source Step = 94.8505%
Source Step = 94.9067%
Source Step = 94.9629%
Source Step = 95.019%
Source Step = 95.0752%
Source Step = 95.1314%
Source Step = 95.1876%
Source Step = 95.2438%
Source Step = 95.2999%
Source Step = 95.3561%
Source Step = 95.4123%
Source Step = 95.4685%
Source Step = 95.5247%
Source Step = 95.5808%
Source Step = 95.637%
Source Step = 95.6932%
Source Step = 95.7494%
Source Step = 95.8056%
Source Step = 95.8617%
Source Step = 95.9179%
Source Step = 95.9741%
Source Step = 96.0303%
Source Step = 96.0865%
Source Step = 96.1426%
Source Step = 96.1988%
Source Step = 96.255%
Source Step = 96.3112%
Source Step = 96.3674%
Source Step = 96.4235%
Source Step = 96.4797%
Source Step = 96.5359%
Source Step = 96.5921%
Source Step = 96.6483%
Source Step = 96.7044%
Source Step = 96.7606%
Source Step = 96.8168%
Source Step = 96.873%
Source Step = 96.9292%
Source Step = 96.9853%
Source Step = 97.0415%
Source Step = 97.0977%
Source Step = 97.1539%
Source Step = 97.2101%
Source Step = 97.2662%
Source Step = 97.3224%
Source Step = 97.3786%
Source Step = 97.4348%
Source Step = 97.491%
Starting source stepping with srcstepmethod=1
Source Step = 3.0303%
Source Step = 33.3333%
Source Step = 63.6364%
Source Step = 88.6364%
vernier = 0.0625
Source stepping failed

Pseudo transient terminated at 102.519 s, solution accepted ready or not!
Total elapsed time: 10.887 seconds.

Files loaded:
C:\Users\German\Documents\placa_prueba_bq24780s\Simulaciones\modulo_descarga\modulo_descarga_aol.net
C:\Users\German\Documents\placa_prueba_bq24780s\Simulaciones\modulo_descarga\lmx58_lm2904.lib
C:\Users\German\Documents\placa_prueba_bq24780s\Simulaciones\modulo_descarga\CSD17308Q3.lib

