LTspice 24.1.9 for Windows
Circuit: C:\Users\German\Documents\placa_prueba_bq24780s\Simulaciones\modulo_descarga\modulo_descarga_y_señal_ac_sziklai.net
Start Time: Wed Sep 10 20:59:54 2025
solver = Normal
Maximum thread count: 8
tnom = 27
temp = 27
method = trap
C:\Users\German\Documents\placa_prueba_bq24780s\Simulaciones\modulo_descarga\modulo_descarga_y_señal_ac_sziklai.net(8): Missing value, assuming 0V @ DC.

V1 N003 0
^^^^^^^^^
Direct Newton iteration failed to find .op point.  (Use ".option noopiter" to skip.)
Starting Gmin stepping
Gmin = 10
Gmin = 1.07374
Gmin = 0.115292
Gmin = 0.0123794
Gmin = 0.00132923
Gmin = 0.000142725
vernier = 0.5
vernier = 0.25
vernier = 0.125
Gmin = 8.33655e-05
vernier = 0.0625
vernier = 0.0833333
Gmin = 7.25195e-05
vernier = 0.111111
vernier = 0.0555555
Gmin = 6.19186e-05
vernier = 0.074074
vernier = 0.0987653
Gmin = 5.13855e-05
vernier = 0.131687
Gmin = 3.83764e-05
vernier = 0.175583
vernier = 0.23411
Gmin = 2.36218e-05
vernier = 0.312147
vernier = 0.416196
Gmin = 1.10187e-05
vernier = 0.554928
Gmin = 3.40132e-06
vernier = 0.739903
vernier = 0.369952
vernier = 0.184976
vernier = 0.0924879
vernier = 0.046244
vernier = 0.023122
vernier = 0.011561
Gmin = 2.04418e-06
vernier = 0.00578049
vernier = 0.00289025
vernier = 0.00144512
vernier = 0.000722562
vernier = 0.000541921
vernier = 0.000406441
Gmin = 0
Gmin stepping failed

Starting source stepping with srcstepmethod=0
Source Step = 3.0303%
Source Step = 33.3333%
Source Step = 63.6364%
Source Step = 88.6364%
vernier = 0.0625
Source Step = 87.8995%
Starting source stepping with srcstepmethod=1
Source Step = 3.0303%
Source Step = 33.3333%
Source Step = 63.6364%
Source Step = 88.6364%
vernier = 0.0625
Source stepping failed

Pseudo Transient succeeded in finding the operating point at 2.31271 s.
Total elapsed time: 3.095 seconds.

Files loaded:
C:\Users\German\Documents\placa_prueba_bq24780s\Simulaciones\modulo_descarga\modulo_descarga_y_señal_ac_sziklai.net
C:\Users\German\AppData\Local\LTspice\lib\cmp\standard.bjt
C:\Users\German\Documents\placa_prueba_bq24780s\Simulaciones\modulo_descarga\lmx58_lm2904.lib
C:\Users\German\Documents\placa_prueba_bq24780s\Simulaciones\modulo_descarga\CSD17308Q3.lib

