LTspice 24.1.9 for Windows
Circuit: C:\Users\German\Documents\placa_prueba_bq24780s\Simulaciones\modulo_descarga\howland_current_pump.net
Start Time: Sun Sep 14 17:55:18 2025
solver = Normal
Maximum thread count: 12
tnom = 27
temp = 27
method = trap
Direct Newton iteration failed to find .op point.  (Use ".option noopiter" to skip.)
Starting Gmin stepping
Gmin = 10
Gmin = 1.07374
Gmin = 0.115292
Gmin = 0.0123794
Gmin = 0.00132923
Gmin = 0.000142725
vernier = 0.5
vernier = 0.25
vernier = 0.125
Gmin = 7.08607e-05
vernier = 0.0625
vernier = 0.03125
vernier = 0.015625
Gmin = 7.16644e-05
vernier = 0.0208333
vernier = 0.0277778
Gmin = 6.75686e-05
vernier = 0.037037
vernier = 0.0493827
Gmin = 6.15262e-05
vernier = 0.0658435
Gmin = 5.3113e-05
vernier = 0.0877914
vernier = 0.0438957
vernier = 0.0219478
Gmin = 4.73893e-05
vernier = 0.0109739
vernier = 0.0146319
Gmin = 4.62353e-05
vernier = 0.0195092
vernier = 0.0260122
Gmin = 4.41289e-05
vernier = 0.034683
Gmin = 4.09167e-05
vernier = 0.046244
vernier = 0.0616586
Gmin = 3.61634e-05
vernier = 0.0822114
vernier = 0.109615
Gmin = 2.97567e-05
vernier = 0.146154
Gmin = 2.17246e-05
vernier = 0.194871
vernier = 0.259828
Gmin = 1.30442e-05
vernier = 0.346438
vernier = 0.173219
vernier = 0.0866095
vernier = 0.0433047
Gmin = 8.41785e-06
vernier = 0.0216524
vernier = 0.0108262
vernier = 0.00541309
vernier = 0.00270655
vernier = 0.00135327
vernier = 0.000676636
vernier = 0.000507477
Gmin = 0
Gmin stepping failed

Starting source stepping with srcstepmethod=0
Source Step = 3.0303%
Source Step = 33.3333%
Source Step = 63.6364%
Source Step = 88.6364%
vernier = 0.0625
Source Step = 87.8995%
Starting source stepping with srcstepmethod=1
Source Step = 3.0303%
Source Step = 33.3333%
Source Step = 63.6364%
Source Step = 88.6364%
vernier = 0.0625
Source stepping failed

Pseudo Transient succeeded in finding the operating point at 739.842 ms.
Warning: Simulation tolerance relaxed to achieve convergence from 2.3925361182112477e-09 to 2.3925361192112479e-09 seconds.
Warning: Simulation tolerance relaxed to achieve convergence from 2.3925361192112479e-09 to 2.3925361202112480e-09 seconds.
Warning: Simulation tolerance relaxed to achieve convergence from 2.3925361632112491e-09 to 2.3925361642112492e-09 seconds.
Warning: Simulation tolerance relaxed to achieve convergence from 2.3925361792112494e-09 to 2.3925361802112496e-09 seconds.
Warning: Simulation tolerance relaxed to achieve convergence from 2.3925361982112502e-09 to 2.3925361992112503e-09 seconds.
Warning: Simulation tolerance relaxed to achieve convergence from 2.3925362042112507e-09 to 2.3925362052112508e-09 seconds.
Warning: Simulation tolerance relaxed to achieve convergence from 2.3925362222112513e-09 to 2.3925362232112514e-09 seconds.
Warning: Simulation tolerance relaxed to achieve convergence from 2.3925362632112524e-09 to 2.3925362642112526e-09 seconds.
Warning: Simulation tolerance relaxed to achieve convergence from 2.3925362742112528e-09 to 2.3925362752112530e-09 seconds.
Warning: Simulation tolerance relaxed to achieve convergence from 2.3925362762112531e-09 to 2.3925362772112533e-09 seconds.
Warning: Simulation tolerance relaxed to achieve convergence from 2.3925362792112532e-09 to 2.3925362802112533e-09 seconds.
Warning: Simulation tolerance relaxed to achieve convergence from 2.3925362832112533e-09 to 2.3925362842112535e-09 seconds.
Warning: Simulation tolerance relaxed to achieve convergence from 2.3925362892112534e-09 to 2.3925362902112536e-09 seconds.
Warning: Simulation tolerance relaxed to achieve convergence from 2.3925362922112534e-09 to 2.3925362932112536e-09 seconds.
Warning: Simulation tolerance relaxed to achieve convergence from 2.3925362992112537e-09 to 2.3925363002112538e-09 seconds.
Warning: Simulation tolerance relaxed to achieve convergence from 2.3925363022112537e-09 to 2.3925363032112538e-09 seconds.
Warning: Simulation tolerance relaxed to achieve convergence from 2.3925363172112539e-09 to 2.3925363182112540e-09 seconds.
Warning: Simulation tolerance relaxed to achieve convergence from 2.3925363182112540e-09 to 2.3925363192112542e-09 seconds.
Warning: Simulation tolerance relaxed to achieve convergence from 2.3925363192112542e-09 to 2.3925363202112543e-09 seconds.
Warning: Simulation tolerance relaxed to achieve convergence from 2.3925363202112543e-09 to 2.3925363212112545e-09 seconds.
Warning: Simulation tolerance relaxed to achieve convergence from 2.3925364342112556e-09 to 2.3925364352112558e-09 seconds.
Warning: Simulation tolerance relaxed to achieve convergence from 2.3925364372112561e-09 to 2.3925364382112562e-09 seconds.
Warning: Simulation tolerance relaxed to achieve convergence from 2.3925364392112564e-09 to 2.3925364402112565e-09 seconds.
Warning: Simulation tolerance relaxed to achieve convergence from 2.3925364412112567e-09 to 2.3925364422112568e-09 seconds.
Warning: Simulation tolerance relaxed to achieve convergence from 2.3925364512112573e-09 to 2.3925364522112575e-09 seconds.
Warning: Simulation tolerance relaxed to achieve convergence from 2.3925364572112574e-09 to 2.3925364582112575e-09 seconds.
Warning: Simulation tolerance relaxed to achieve convergence from 2.3925364952112581e-09 to 2.3925364962112582e-09 seconds.
Warning: Simulation tolerance relaxed to achieve convergence from 2.3925364962112582e-09 to 2.3925364972112584e-09 seconds.
Warning: Simulation tolerance relaxed to achieve convergence from 2.3925364982112585e-09 to 2.3925364992112587e-09 seconds.
Warning: Simulation tolerance relaxed to achieve convergence from 2.3925364992112587e-09 to 2.3925365002112588e-09 seconds.
Warning: Simulation tolerance relaxed to achieve convergence from 2.3925365012112590e-09 to 2.3925365022112591e-09 seconds.
Warning: Simulation tolerance relaxed to achieve convergence from 2.3925365032112593e-09 to 2.3925365042112594e-09 seconds.
Warning: Simulation tolerance relaxed to achieve convergence from 2.3925365042112594e-09 to 2.3925365052112596e-09 seconds.
Warning: Simulation tolerance relaxed to achieve convergence from 2.3925365512112602e-09 to 2.3925365522112604e-09 seconds.
Warning: Simulation tolerance relaxed to achieve convergence from 2.3925365522112604e-09 to 2.3925365532112605e-09 seconds.
Warning: Simulation tolerance relaxed to achieve convergence from 2.3925365532112605e-09 to 2.3925365542112607e-09 seconds.
Warning: Simulation tolerance relaxed to achieve convergence from 2.3925366782112606e-09 to 2.3925366792112607e-09 seconds.
Warning: Simulation tolerance relaxed to achieve convergence from 2.3925366842112611e-09 to 2.3925366852112612e-09 seconds.
Warning: Simulation tolerance relaxed to achieve convergence from 2.3925366852112612e-09 to 2.3925366862112614e-09 seconds.
Warning: Simulation tolerance relaxed to achieve convergence from 2.3925366882112612e-09 to 2.3925366892112614e-09 seconds.
Warning: Simulation tolerance relaxed to achieve convergence from 2.3925366892112614e-09 to 2.3925366902112615e-09 seconds.
Warning: Simulation tolerance relaxed to achieve convergence from 2.3925367882112617e-09 to 2.3925367892112618e-09 seconds.
Warning: Simulation tolerance relaxed to achieve convergence from 2.3925368842112624e-09 to 2.3925368852112625e-09 seconds.
Warning: Simulation tolerance relaxed to achieve convergence from 2.3925368912112626e-09 to 2.3925368922112627e-09 seconds.
Warning: Simulation tolerance relaxed to achieve convergence from 2.3925369332112631e-09 to 2.3925369342112632e-09 seconds.
Warning: Simulation tolerance relaxed to achieve convergence from 2.3925369402112633e-09 to 2.3925369412112634e-09 seconds.
Warning: Simulation tolerance relaxed to achieve convergence from 2.3925369462112638e-09 to 2.3925369472112639e-09 seconds.
Warning: Simulation tolerance relaxed to achieve convergence from 2.3925374352112631e-09 to 2.3925374362112633e-09 seconds.
Warning: Simulation tolerance relaxed to achieve convergence from 2.3925374382112636e-09 to 2.3925374392112637e-09 seconds.
Warning: Simulation tolerance relaxed to achieve convergence from 2.3925374412112640e-09 to 2.3925374422112642e-09 seconds.
Warning: Simulation tolerance relaxed to achieve convergence from 2.3925374422112642e-09 to 2.3925374432112643e-09 seconds.
Warning: Simulation tolerance relaxed to achieve convergence from 2.3925374732112642e-09 to 2.3925374742112644e-09 seconds.
Warning: Simulation tolerance relaxed to achieve convergence from 2.3925375082112645e-09 to 2.3925375092112646e-09 seconds.
Warning: Simulation tolerance relaxed to achieve convergence from 2.3925375572112652e-09 to 2.3925375582112653e-09 seconds.
Warning: Simulation tolerance relaxed to achieve convergence from 2.3925375602112652e-09 to 2.3925375612112654e-09 seconds.
Warning: Simulation tolerance relaxed to achieve convergence from 2.3925376442112653e-09 to 2.3925376452112655e-09 seconds.
Warning: Simulation tolerance relaxed to achieve convergence from 2.3925376522112657e-09 to 2.3925376532112659e-09 seconds.
Warning: Simulation tolerance relaxed to achieve convergence from 2.3925376542112660e-09 to 2.3925376552112662e-09 seconds.
Warning: Simulation tolerance relaxed to achieve convergence from 2.3925376962112665e-09 to 2.3925376972112666e-09 seconds.
Warning: Simulation tolerance relaxed to achieve convergence from 2.3925376992112665e-09 to 2.3925377002112667e-09 seconds.
Warning: Simulation tolerance relaxed to achieve convergence from 2.3925377032112667e-09 to 2.3925377042112668e-09 seconds.
Warning: Simulation tolerance relaxed to achieve convergence from 2.3925377482112676e-09 to 2.3925377492112678e-09 seconds.
Warning: Simulation tolerance relaxed to achieve convergence from 2.3925377672112684e-09 to 2.3925377682112685e-09 seconds.
Warning: Simulation tolerance relaxed to achieve convergence from 2.3925377832112691e-09 to 2.3925377842112693e-09 seconds.
Warning: Simulation tolerance relaxed to achieve convergence from 2.3925377912112695e-09 to 2.3925377922112696e-09 seconds.
Warning: Simulation tolerance relaxed to achieve convergence from 2.3925377922112696e-09 to 2.3925377932112698e-09 seconds.
Warning: Simulation tolerance relaxed to achieve convergence from 2.3925377932112698e-09 to 2.3925377942112699e-09 seconds.
Warning: Simulation tolerance relaxed to achieve convergence from 2.3925377992112699e-09 to 2.3925378002112700e-09 seconds.
Warning: Simulation tolerance relaxed to achieve convergence from 2.3925378072112702e-09 to 2.3925378082112704e-09 seconds.
Warning: Simulation tolerance relaxed to achieve convergence from 2.3925378292112706e-09 to 2.3925378302112708e-09 seconds.
Warning: Simulation tolerance relaxed to achieve convergence from 2.3925378322112706e-09 to 2.3925378332112708e-09 seconds.
Warning: Simulation tolerance relaxed to achieve convergence from 2.3925378512112710e-09 to 2.3925378522112711e-09 seconds.
Warning: Simulation tolerance relaxed to achieve convergence from 2.3925378522112711e-09 to 2.3925378532112713e-09 seconds.
Warning: Simulation tolerance relaxed to achieve convergence from 2.3925378562112713e-09 to 2.3925378572112715e-09 seconds.
Warning: Simulation tolerance relaxed to achieve convergence from 2.3925378622112718e-09 to 2.3925378632112720e-09 seconds.
Warning: Simulation tolerance relaxed to achieve convergence from 2.3925378712112723e-09 to 2.3925378722112725e-09 seconds.
Warning: Simulation tolerance relaxed to achieve convergence from 2.3925378792112727e-09 to 2.3925378802112728e-09 seconds.
Warning: Simulation tolerance relaxed to achieve convergence from 2.3925378862112733e-09 to 2.3925378872112735e-09 seconds.
Warning: Simulation tolerance relaxed to achieve convergence from 2.3925379022112741e-09 to 2.3925379032112742e-09 seconds.
Warning: Simulation tolerance relaxed to achieve convergence from 2.3925379032112742e-09 to 2.3925379042112744e-09 seconds.
Warning: Simulation tolerance relaxed to achieve convergence from 2.3925379042112744e-09 to 2.3925379052112745e-09 seconds.
Warning: Simulation tolerance relaxed to achieve convergence from 2.3925379272112749e-09 to 2.3925379282112750e-09 seconds.
Warning: Simulation tolerance relaxed to achieve convergence from 2.3925379612112754e-09 to 2.3925379622112756e-09 seconds.
Warning: Simulation tolerance relaxed to achieve convergence from 2.3925380032112759e-09 to 2.3925380042112760e-09 seconds.
Warning: Simulation tolerance relaxed to achieve convergence from 2.3925380222112762e-09 to 2.3925380232112764e-09 seconds.
Warning: Simulation tolerance relaxed to achieve convergence from 2.3925380462112769e-09 to 2.3925380472112771e-09 seconds.
Warning: Simulation tolerance relaxed to achieve convergence from 2.3925380922112780e-09 to 2.3925380932112782e-09 seconds.
Warning: Simulation tolerance relaxed to achieve convergence from 2.3925381002112784e-09 to 2.3925381012112785e-09 seconds.
Warning: Simulation tolerance relaxed to achieve convergence from 2.3925381012112785e-09 to 2.3925381022112787e-09 seconds.
Warning: Simulation tolerance relaxed to achieve convergence from 2.3925381162112791e-09 to 2.3925381172112793e-09 seconds.
Warning: Simulation tolerance relaxed to achieve convergence from 2.3925381172112793e-09 to 2.3925381182112794e-09 seconds.
Warning: Simulation tolerance relaxed to achieve convergence from 2.3925381182112794e-09 to 2.3925381192112796e-09 seconds.
Warning: Simulation tolerance relaxed to achieve convergence from 2.3925381192112796e-09 to 2.3925381202112797e-09 seconds.
Warning: Simulation tolerance relaxed to achieve convergence from 2.3925381392112801e-09 to 2.3925381402112802e-09 seconds.
Warning: Simulation tolerance relaxed to achieve convergence from 2.3925382482112806e-09 to 2.3925382492112808e-09 seconds.
Warning: Simulation tolerance relaxed to achieve convergence from 2.3925382582112809e-09 to 2.3925382592112810e-09 seconds.
Warning: Simulation tolerance relaxed to achieve convergence from 2.3925382602112812e-09 to 2.3925382612112813e-09 seconds.
Warning: Simulation tolerance relaxed to achieve convergence from 2.3925382632112812e-09 to 2.3925382642112813e-09 seconds.
Warning: Simulation tolerance relaxed to achieve convergence from 2.3925382812112822e-09 to 2.3925382822112824e-09 seconds.
Warning: Simulation tolerance relaxed to achieve convergence from 2.3925384792112836e-09 to 2.3925384802112838e-09 seconds.
Warning: Simulation tolerance relaxed to achieve convergence from 2.3925385072112841e-09 to 2.3925385082112842e-09 seconds.
Warning: Simulation tolerance relaxed to achieve convergence from 2.3925385302112846e-09 to 2.3925385312112848e-09 seconds.
Warning: Simulation tolerance relaxed to achieve convergence from 2.3925385992112862e-09 to 2.3925386002112864e-09 seconds.
Warning: Simulation tolerance relaxed to achieve convergence from 2.3925386072112866e-09 to 2.3925386082112868e-09 seconds.
Warning: Simulation tolerance relaxed to achieve convergence from 2.3925386532112873e-09 to 2.3925386542112874e-09 seconds.
Warning: Simulation tolerance relaxed to achieve convergence from 2.3925386562112873e-09 to 2.3925386572112875e-09 seconds.
Warning: Simulation tolerance relaxed to achieve convergence from 2.3925386572112875e-09 to 2.3925386582112876e-09 seconds.
Warning: Simulation tolerance relaxed to achieve convergence from 2.3925386852112883e-09 to 2.3925386862112885e-09 seconds.
Warning: Simulation tolerance relaxed to achieve convergence from 2.3925387002112889e-09 to 2.3925387012112891e-09 seconds.
Warning: Simulation tolerance relaxed to achieve convergence from 2.3925387402112907e-09 to 2.3925387412112909e-09 seconds.
Warning: Simulation tolerance relaxed to achieve convergence from 2.3925387532112914e-09 to 2.3925387542112916e-09 seconds.
Warning: Simulation tolerance relaxed to achieve convergence from 2.3925387662112917e-09 to 2.3925387672112919e-09 seconds.
Warning: Simulation tolerance relaxed to achieve convergence from 2.3925387702112919e-09 to 2.3925387712112921e-09 seconds.
Warning: Simulation tolerance relaxed to achieve convergence from 2.3925387712112921e-09 to 2.3925387722112922e-09 seconds.
Warning: Simulation tolerance relaxed to achieve convergence from 2.3925387742112921e-09 to 2.3925387752112922e-09 seconds.
Warning: Simulation tolerance relaxed to achieve convergence from 2.3925387822112925e-09 to 2.3925387832112926e-09 seconds.
Warning: Simulation tolerance relaxed to achieve convergence from 2.3925387832112926e-09 to 2.3925387842112928e-09 seconds.
Warning: Simulation tolerance relaxed to achieve convergence from 2.3925388122112928e-09 to 2.3925388132112929e-09 seconds.
Warning: Simulation tolerance relaxed to achieve convergence from 2.3925388172112931e-09 to 2.3925388182112933e-09 seconds.
Warning: Simulation tolerance relaxed to achieve convergence from 2.3925388182112933e-09 to 2.3925388192112934e-09 seconds.
Warning: Simulation tolerance relaxed to achieve convergence from 2.3925388202112936e-09 to 2.3925388212112937e-09 seconds.
Warning: Simulation tolerance relaxed to achieve convergence from 2.3925388252112943e-09 to 2.3925388262112945e-09 seconds.
Warning: Simulation tolerance relaxed to achieve convergence from 2.3925388532112952e-09 to 2.3925388542112953e-09 seconds.
Warning: Simulation tolerance relaxed to achieve convergence from 2.3925388562112956e-09 to 2.3925388572112958e-09 seconds.
Warning: Simulation tolerance relaxed to achieve convergence from 2.3925388582112959e-09 to 2.3925388592112961e-09 seconds.
Warning: Simulation tolerance relaxed to achieve convergence from 2.3925388592112961e-09 to 2.3925388602112962e-09 seconds.
Warning: Simulation tolerance relaxed to achieve convergence from 2.3925388662112963e-09 to 2.3925388672112965e-09 seconds.
Warning: Simulation tolerance relaxed to achieve convergence from 2.3925388812112969e-09 to 2.3925388822112970e-09 seconds.
Warning: Simulation tolerance relaxed to achieve convergence from 2.3925389542112987e-09 to 2.3925389552112988e-09 seconds.
Warning: Simulation tolerance relaxed to achieve convergence from 2.3925389552112988e-09 to 2.3925389562112990e-09 seconds.
Warning: Simulation tolerance relaxed to achieve convergence from 2.3925389622112990e-09 to 2.3925389632112992e-09 seconds.
Warning: Simulation tolerance relaxed to achieve convergence from 2.3925389692112993e-09 to 2.3925389702112994e-09 seconds.
Warning: Simulation tolerance relaxed to achieve convergence from 2.3925390442112997e-09 to 2.3925390452112999e-09 seconds.
Warning: Simulation tolerance relaxed to achieve convergence from 2.3925391442113001e-09 to 2.3925391452113003e-09 seconds.
Warning: Simulation tolerance relaxed to achieve convergence from 2.3925393502113023e-09 to 2.3925393512113025e-09 seconds.
Warning: Simulation tolerance relaxed to achieve convergence from 2.3925393682113026e-09 to 2.3925393692113027e-09 seconds.
Warning: Simulation tolerance relaxed to achieve convergence from 2.3925393762113029e-09 to 2.3925393772113031e-09 seconds.
Warning: Simulation tolerance relaxed to achieve convergence from 2.3925394342113041e-09 to 2.3925394352113043e-09 seconds.
Warning: Simulation tolerance relaxed to achieve convergence from 2.3925394352113043e-09 to 2.3925394362113044e-09 seconds.
Warning: Simulation tolerance relaxed to achieve convergence from 2.3925394362113044e-09 to 2.3925394372113046e-09 seconds.
Warning: Simulation tolerance relaxed to achieve convergence from 2.3925394372113046e-09 to 2.3925394382113047e-09 seconds.
Warning: Simulation tolerance relaxed to achieve convergence from 2.3925394382113047e-09 to 2.3925394392113049e-09 seconds.
Warning: Simulation tolerance relaxed to achieve convergence from 2.3925394412113048e-09 to 2.3925394422113049e-09 seconds.
Warning: Simulation tolerance relaxed to achieve convergence from 2.3925394602113051e-09 to 2.3925394612113053e-09 seconds.
Warning: Simulation tolerance relaxed to achieve convergence from 2.3925394702113054e-09 to 2.3925394712113055e-09 seconds.
Warning: Simulation tolerance relaxed to achieve convergence from 2.3925395242113064e-09 to 2.3925395252113065e-09 seconds.
Warning: Simulation tolerance relaxed to achieve convergence from 2.3925395272113068e-09 to 2.3925395282113070e-09 seconds.
Warning: Simulation tolerance relaxed to achieve convergence from 2.3925395282113070e-09 to 2.3925395292113071e-09 seconds.
Warning: Simulation tolerance relaxed to achieve convergence from 2.3925395292113071e-09 to 2.3925395302113073e-09 seconds.
Warning: Simulation tolerance relaxed to achieve convergence from 2.3925395612113074e-09 to 2.3925395622113075e-09 seconds.
Warning: Simulation tolerance relaxed to achieve convergence from 2.3925395622113075e-09 to 2.3925395632113077e-09 seconds.
Warning: Simulation tolerance relaxed to achieve convergence from 2.3925395632113077e-09 to 2.3925395642113078e-09 seconds.
Warning: Simulation tolerance relaxed to achieve convergence from 2.3925395652113080e-09 to 2.3925395662113081e-09 seconds.
Warning: Simulation tolerance relaxed to achieve convergence from 2.3925395742113085e-09 to 2.3925395752113086e-09 seconds.
Warning: Simulation tolerance relaxed to achieve convergence from 2.3925395752113086e-09 to 2.3925395762113088e-09 seconds.
Warning: Simulation tolerance relaxed to achieve convergence from 2.3925395762113088e-09 to 2.3925395772113089e-09 seconds.
Warning: Simulation tolerance relaxed to achieve convergence from 2.3925395842113096e-09 to 2.3925395852113097e-09 seconds.
Warning: Simulation tolerance relaxed to achieve convergence from 2.3925395922113099e-09 to 2.3925395932113101e-09 seconds.
Warning: Simulation tolerance relaxed to achieve convergence from 2.3925396032113103e-09 to 2.3925396042113105e-09 seconds.
Warning: Simulation tolerance relaxed to achieve convergence from 2.3925396042113105e-09 to 2.3925396052113106e-09 seconds.
Warning: Simulation tolerance relaxed to achieve convergence from 2.3925396052113106e-09 to 2.3925396062113108e-09 seconds.
Warning: Simulation tolerance relaxed to achieve convergence from 2.3925396272113114e-09 to 2.3925396282113116e-09 seconds.
Warning: Simulation tolerance relaxed to achieve convergence from 2.3925396312113116e-09 to 2.3925396322113118e-09 seconds.
Warning: Simulation tolerance relaxed to achieve convergence from 2.3925396322113118e-09 to 2.3925396332113119e-09 seconds.
Warning: Simulation tolerance relaxed to achieve convergence from 2.3925396432113122e-09 to 2.3925396442113123e-09 seconds.
Warning: Simulation tolerance relaxed to achieve convergence from 2.3925396802113131e-09 to 2.3925396812113133e-09 seconds.
Warning: Simulation tolerance relaxed to achieve convergence from 2.3925396872113133e-09 to 2.3925396882113135e-09 seconds.
Warning: Simulation tolerance relaxed to achieve convergence from 2.3925396882113135e-09 to 2.3925396892113136e-09 seconds.
Warning: Simulation tolerance relaxed to achieve convergence from 2.3925396892113136e-09 to 2.3925396902113138e-09 seconds.
Warning: Simulation tolerance relaxed to achieve convergence from 2.3925396902113138e-09 to 2.3925396912113139e-09 seconds.
Warning: Simulation tolerance relaxed to achieve convergence from 2.3925396932113138e-09 to 2.3925396942113140e-09 seconds.
Warning: Simulation tolerance relaxed to achieve convergence from 2.3925396992113143e-09 to 2.3925397002113145e-09 seconds.
Warning: Simulation tolerance relaxed to achieve convergence from 2.3925397062113145e-09 to 2.3925397072113147e-09 seconds.
Warning: Simulation tolerance relaxed to achieve convergence from 2.3925397072113147e-09 to 2.3925397082113148e-09 seconds.
Warning: Simulation tolerance relaxed to achieve convergence from 2.3925397222113153e-09 to 2.3925397232113154e-09 seconds.
Warning: Simulation tolerance relaxed to achieve convergence from 2.3925397232113154e-09 to 2.3925397242113156e-09 seconds.
Warning: Simulation tolerance relaxed to achieve convergence from 2.3925397242113156e-09 to 2.3925397252113157e-09 seconds.
Warning: Simulation tolerance relaxed to achieve convergence from 2.3925397262113159e-09 to 2.3925397272113160e-09 seconds.
Warning: Simulation tolerance relaxed to achieve convergence from 2.3925397272113160e-09 to 2.3925397282113161e-09 seconds.
Warning: Simulation tolerance relaxed to achieve convergence from 2.3925397852113168e-09 to 2.3925397862113169e-09 seconds.
Warning: Simulation tolerance relaxed to achieve convergence from 2.3925397892113170e-09 to 2.3925397902113171e-09 seconds.
Warning: Simulation tolerance relaxed to achieve convergence from 2.3925398012113175e-09 to 2.3925398022113177e-09 seconds.
Warning: Simulation tolerance relaxed to achieve convergence from 2.3925398852113193e-09 to 2.3925398862113195e-09 seconds.
Warning: Simulation tolerance relaxed to achieve convergence from 2.3925398952113200e-09 to 2.3925398962113201e-09 seconds.
Warning: Simulation tolerance relaxed to achieve convergence from 2.3925399022113202e-09 to 2.3925399032113203e-09 seconds.
Warning: Simulation tolerance relaxed to achieve convergence from 2.3925399672113208e-09 to 2.3925399682113209e-09 seconds.
Warning: Simulation tolerance relaxed to achieve convergence from 2.3925399942113211e-09 to 2.3925399952113212e-09 seconds.
Warning: Simulation tolerance relaxed to achieve convergence from 2.3925400362113224e-09 to 2.3925400372113226e-09 seconds.
Warning: Simulation tolerance relaxed to achieve convergence from 2.3925400412113227e-09 to 2.3925400422113229e-09 seconds.
Warning: Simulation tolerance relaxed to achieve convergence from 2.3925401352113235e-09 to 2.3925401362113237e-09 seconds.
Warning: Simulation tolerance relaxed to achieve convergence from 2.3925401412113240e-09 to 2.3925401422113242e-09 seconds.
Warning: Simulation tolerance relaxed to achieve convergence from 2.3925401422113242e-09 to 2.3925401432113243e-09 seconds.
Warning: Simulation tolerance relaxed to achieve convergence from 2.3925401482113246e-09 to 2.3925401492113248e-09 seconds.
Warning: Simulation tolerance relaxed to achieve convergence from 2.3925401972113253e-09 to 2.3925401982113255e-09 seconds.
Warning: Simulation tolerance relaxed to achieve convergence from 2.3925401992113256e-09 to 2.3925402002113258e-09 seconds.
Warning: Simulation tolerance relaxed to achieve convergence from 2.3925402082113261e-09 to 2.3925402092113263e-09 seconds.
Warning: Simulation tolerance relaxed to achieve convergence from 2.3925402152113264e-09 to 2.3925402162113265e-09 seconds.
Warning: Simulation tolerance relaxed to achieve convergence from 2.3925402302113265e-09 to 2.3925402312113267e-09 seconds.
Warning: Simulation tolerance relaxed to achieve convergence from 2.3925402402113272e-09 to 2.3925402412113273e-09 seconds.
Warning: Simulation tolerance relaxed to achieve convergence from 2.3925402512113276e-09 to 2.3925402522113277e-09 seconds.
Warning: Simulation tolerance relaxed to achieve convergence from 2.3925402572113277e-09 to 2.3925402582113278e-09 seconds.
Warning: Simulation tolerance relaxed to achieve convergence from 2.3925403002113279e-09 to 2.3925403012113280e-09 seconds.
Warning: Simulation tolerance relaxed to achieve convergence from 2.3925403182113285e-09 to 2.3925403192113286e-09 seconds.
Warning: Simulation tolerance relaxed to achieve convergence from 2.3925403312113288e-09 to 2.3925403322113289e-09 seconds.
Warning: Simulation tolerance relaxed to achieve convergence from 2.3925405042113302e-09 to 2.3925405052113303e-09 seconds.
Warning: Simulation tolerance relaxed to achieve convergence from 2.3925405112113304e-09 to 2.3925405122113306e-09 seconds.
Warning: Simulation tolerance relaxed to achieve convergence from 2.3925405452113309e-09 to 2.3925405462113311e-09 seconds.
Warning: Simulation tolerance relaxed to achieve convergence from 2.3925405462113311e-09 to 2.3925405472113312e-09 seconds.
Warning: Simulation tolerance relaxed to achieve convergence from 2.3925405492113311e-09 to 2.3925405502113313e-09 seconds.
Warning: Simulation tolerance relaxed to achieve convergence from 2.3925405522113312e-09 to 2.3925405532113313e-09 seconds.
Warning: Simulation tolerance relaxed to achieve convergence from 2.3925405552113312e-09 to 2.3925405562113313e-09 seconds.
Warning: Simulation tolerance relaxed to achieve convergence from 2.3925405582113312e-09 to 2.3925405592113314e-09 seconds.
Warning: Simulation tolerance relaxed to achieve convergence from 2.3925405642113313e-09 to 2.3925405652113314e-09 seconds.
Warning: Simulation tolerance relaxed to achieve convergence from 2.3925407242113332e-09 to 2.3925407252113334e-09 seconds.
Warning: Simulation tolerance relaxed to achieve convergence from 2.3925407302113333e-09 to 2.3925407312113335e-09 seconds.
Warning: Simulation tolerance relaxed to achieve convergence from 2.3925407452113335e-09 to 2.3925407462113336e-09 seconds.
Warning: Simulation tolerance relaxed to achieve convergence from 2.3925407612113338e-09 to 2.3925407622113339e-09 seconds.
Warning: Simulation tolerance relaxed to achieve convergence from 2.3925407692113346e-09 to 2.3925407702113347e-09 seconds.
Warning: Simulation tolerance relaxed to achieve convergence from 2.3925407762113352e-09 to 2.3925407772113354e-09 seconds.
Warning: Simulation tolerance relaxed to achieve convergence from 2.3925408912113375e-09 to 2.3925408922113376e-09 seconds.
Warning: Simulation tolerance relaxed to achieve convergence from 2.3925410062113381e-09 to 2.3925410072113382e-09 seconds.
Warning: Simulation tolerance relaxed to achieve convergence from 2.3925410432113391e-09 to 2.3925410442113392e-09 seconds.
Warning: Simulation tolerance relaxed to achieve convergence from 2.3925412282113419e-09 to 2.3925412292113420e-09 seconds.
Warning: Simulation tolerance relaxed to achieve convergence from 2.3925412292113420e-09 to 2.3925412302113422e-09 seconds.
Warning: Simulation tolerance relaxed to achieve convergence from 2.3925412312113423e-09 to 2.3925412322113425e-09 seconds.
Warning: Simulation tolerance relaxed to achieve convergence from 2.3925412392113427e-09 to 2.3925412402113428e-09 seconds.
Warning: Simulation tolerance relaxed to achieve convergence from 2.3925412402113428e-09 to 2.3925412412113430e-09 seconds.
Warning: Simulation tolerance relaxed to achieve convergence from 2.3925412412113430e-09 to 2.3925412422113431e-09 seconds.
Warning: Simulation tolerance relaxed to achieve convergence from 2.3925412422113431e-09 to 2.3925412432113433e-09 seconds.
Warning: Simulation tolerance relaxed to achieve convergence from 2.3925412432113433e-09 to 2.3925412442113434e-09 seconds.
Warning: Simulation tolerance relaxed to achieve convergence from 2.3925412822113437e-09 to 2.3925412832113439e-09 seconds.
Warning: Simulation tolerance relaxed to achieve convergence from 2.3925412872113445e-09 to 2.3925412882113446e-09 seconds.
Warning: Simulation tolerance relaxed to achieve convergence from 2.3925412882113446e-09 to 2.3925412892113448e-09 seconds.
Warning: Simulation tolerance relaxed to achieve convergence from 2.3925412892113448e-09 to 2.3925412902113449e-09 seconds.
Warning: Simulation tolerance relaxed to achieve convergence from 2.3925412902113449e-09 to 2.3925412912113451e-09 seconds.
Warning: Simulation tolerance relaxed to achieve convergence from 2.3925413002113452e-09 to 2.3925413012113453e-09 seconds.
Warning: Simulation tolerance relaxed to achieve convergence from 2.3925413012113453e-09 to 2.3925413022113455e-09 seconds.
Warning: Simulation tolerance relaxed to achieve convergence from 2.3925413062113456e-09 to 2.3925413072113458e-09 seconds.
Warning: Simulation tolerance relaxed to achieve convergence from 2.3925413092113457e-09 to 2.3925413102113458e-09 seconds.
Warning: Simulation tolerance relaxed to achieve convergence from 2.3925413162113459e-09 to 2.3925413172113460e-09 seconds.
Warning: Simulation tolerance relaxed to achieve convergence from 2.3925413212113462e-09 to 2.3925413222113464e-09 seconds.
Warning: Simulation tolerance relaxed to achieve convergence from 2.3925414122113466e-09 to 2.3925414132113467e-09 seconds.
Warning: Simulation tolerance relaxed to achieve convergence from 2.3925414202113469e-09 to 2.3925414212113471e-09 seconds.
Warning: Simulation tolerance relaxed to achieve convergence from 2.3925414212113471e-09 to 2.3925414222113472e-09 seconds.
Warning: Simulation tolerance relaxed to achieve convergence from 2.3925414222113472e-09 to 2.3925414232113474e-09 seconds.
Warning: Simulation tolerance relaxed to achieve convergence from 2.3925414252113473e-09 to 2.3925414262113474e-09 seconds.
Warning: Simulation tolerance relaxed to achieve convergence from 2.3925414262113474e-09 to 2.3925414272113476e-09 seconds.
Warning: Simulation tolerance relaxed to achieve convergence from 2.3925414272113476e-09 to 2.3925414282113477e-09 seconds.
Warning: Simulation tolerance relaxed to achieve convergence from 2.3925414302113476e-09 to 2.3925414312113477e-09 seconds.
Warning: Simulation tolerance relaxed to achieve convergence from 2.3925414312113477e-09 to 2.3925414322113479e-09 seconds.
Warning: Simulation tolerance relaxed to achieve convergence from 2.3925414322113479e-09 to 2.3925414332113480e-09 seconds.
Warning: Simulation tolerance relaxed to achieve convergence from 2.3925414992113484e-09 to 2.3925415002113485e-09 seconds.
Warning: Simulation tolerance relaxed to achieve convergence from 2.3925415032113486e-09 to 2.3925415042113487e-09 seconds.
Warning: Simulation tolerance relaxed to achieve convergence from 2.3925415062113486e-09 to 2.3925415072113487e-09 seconds.
Warning: Simulation tolerance relaxed to achieve convergence from 2.3925415452113499e-09 to 2.3925415462113500e-09 seconds.
Warning: Simulation tolerance relaxed to achieve convergence from 2.3925415492113500e-09 to 2.3925415502113502e-09 seconds.
Warning: Simulation tolerance relaxed to achieve convergence from 2.3925415512113503e-09 to 2.3925415522113505e-09 seconds.
Warning: Simulation tolerance relaxed to achieve convergence from 2.3925415522113505e-09 to 2.3925415532113506e-09 seconds.
Warning: Simulation tolerance relaxed to achieve convergence from 2.3925416862113515e-09 to 2.3925416872113516e-09 seconds.
Warning: Simulation tolerance relaxed to achieve convergence from 2.3925416872113516e-09 to 2.3925416882113518e-09 seconds.
Warning: Simulation tolerance relaxed to achieve convergence from 2.3925416962113521e-09 to 2.3925416972113523e-09 seconds.
Warning: Simulation tolerance relaxed to achieve convergence from 2.3925416992113522e-09 to 2.3925417002113523e-09 seconds.
Warning: Simulation tolerance relaxed to achieve convergence from 2.3925417002113523e-09 to 2.3925417012113525e-09 seconds.
Warning: Simulation tolerance relaxed to achieve convergence from 2.3925417782113532e-09 to 2.3925417792113533e-09 seconds.
Warning: Simulation tolerance relaxed to achieve convergence from 2.3925417792113533e-09 to 2.3925417802113535e-09 seconds.
Warning: Simulation tolerance relaxed to achieve convergence from 2.3925417802113535e-09 to 2.3925417812113536e-09 seconds.
Warning: Simulation tolerance relaxed to achieve convergence from 2.3925417812113536e-09 to 2.3925417822113538e-09 seconds.
Warning: Simulation tolerance relaxed to achieve convergence from 2.3925417852113538e-09 to 2.3925417862113540e-09 seconds.
Warning: Simulation tolerance relaxed to achieve convergence from 2.3925417862113540e-09 to 2.3925417872113541e-09 seconds.
Warning: Simulation tolerance relaxed to achieve convergence from 2.3925417882113543e-09 to 2.3925417892113544e-09 seconds.
Warning: Simulation tolerance relaxed to achieve convergence from 2.3925417962113546e-09 to 2.3925417972113548e-09 seconds.
Warning: Simulation tolerance relaxed to achieve convergence from 2.3925418002113548e-09 to 2.3925418012113550e-09 seconds.
Warning: Simulation tolerance relaxed to achieve convergence from 2.3925418072113550e-09 to 2.3925418082113552e-09 seconds.
Warning: Simulation tolerance relaxed to achieve convergence from 2.3925418122113554e-09 to 2.3925418132113555e-09 seconds.
Warning: Simulation tolerance relaxed to achieve convergence from 2.3925418342113558e-09 to 2.3925418352113559e-09 seconds.
Warning: Simulation tolerance relaxed to achieve convergence from 2.3925418352113559e-09 to 2.3925418362113561e-09 seconds.
Warning: Simulation tolerance relaxed to achieve convergence from 2.3925419212113563e-09 to 2.3925419222113565e-09 seconds.
Warning: Simulation tolerance relaxed to achieve convergence from 2.3925419222113565e-09 to 2.3925419232113566e-09 seconds.
Warning: Simulation tolerance relaxed to achieve convergence from 2.3925419652113575e-09 to 2.3925419662113577e-09 seconds.
Warning: Simulation tolerance relaxed to achieve convergence from 2.3925419702113579e-09 to 2.3925419712113580e-09 seconds.
Warning: Simulation tolerance relaxed to achieve convergence from 2.3925419932113584e-09 to 2.3925419942113585e-09 seconds.
Warning: Simulation tolerance relaxed to achieve convergence from 2.3925419972113586e-09 to 2.3925419982113587e-09 seconds.
Warning: Simulation tolerance relaxed to achieve convergence from 2.3925421512113596e-09 to 2.3925421522113598e-09 seconds.
Warning: Simulation tolerance relaxed to achieve convergence from 2.3925421642113603e-09 to 2.3925421652113605e-09 seconds.
Warning: Simulation tolerance relaxed to achieve convergence from 2.3925421792113605e-09 to 2.3925421802113607e-09 seconds.
Warning: Simulation tolerance relaxed to achieve convergence from 2.3925421832113607e-09 to 2.3925421842113608e-09 seconds.
Warning: Simulation tolerance relaxed to achieve convergence from 2.3925421842113608e-09 to 2.3925421852113610e-09 seconds.
Warning: Simulation tolerance relaxed to achieve convergence from 2.3925421852113610e-09 to 2.3925421862113611e-09 seconds.
Warning: Simulation tolerance relaxed to achieve convergence from 2.3925422672113621e-09 to 2.3925422682113622e-09 seconds.
Warning: Simulation tolerance relaxed to achieve convergence from 2.3925422732113625e-09 to 2.3925422742113627e-09 seconds.
Warning: Simulation tolerance relaxed to achieve convergence from 2.3925422912113627e-09 to 2.3925422922113629e-09 seconds.
Warning: Simulation tolerance relaxed to achieve convergence from 2.3925422942113628e-09 to 2.3925422952113629e-09 seconds.
Warning: Simulation tolerance relaxed to achieve convergence from 2.3925422952113629e-09 to 2.3925422962113631e-09 seconds.
Warning: Simulation tolerance relaxed to achieve convergence from 2.3925423592113634e-09 to 2.3925423602113635e-09 seconds.
Warning: Simulation tolerance relaxed to achieve convergence from 2.3925423942113636e-09 to 2.3925423952113638e-09 seconds.
Warning: Simulation tolerance relaxed to achieve convergence from 2.3925424802113649e-09 to 2.3925424812113650e-09 seconds.
Warning: Simulation tolerance relaxed to achieve convergence from 2.3925424862113654e-09 to 2.3925424872113655e-09 seconds.
Warning: Simulation tolerance relaxed to achieve convergence from 2.3925424942113657e-09 to 2.3925424952113659e-09 seconds.
Warning: Simulation tolerance relaxed to achieve convergence from 2.3925424972113658e-09 to 2.3925424982113659e-09 seconds.
Warning: Simulation tolerance relaxed to achieve convergence from 2.3925425012113660e-09 to 2.3925425022113661e-09 seconds.
Warning: Simulation tolerance relaxed to achieve convergence from 2.3925425052113661e-09 to 2.3925425062113663e-09 seconds.
Warning: Simulation tolerance relaxed to achieve convergence from 2.3925425062113663e-09 to 2.3925425072113664e-09 seconds.
Warning: Simulation tolerance relaxed to achieve convergence from 2.3925425072113664e-09 to 2.3925425082113666e-09 seconds.
Warning: Simulation tolerance relaxed to achieve convergence from 2.3925425082113666e-09 to 2.3925425092113667e-09 seconds.
Warning: Simulation tolerance relaxed to achieve convergence from 2.3925425172113671e-09 to 2.3925425182113672e-09 seconds.
Warning: Simulation tolerance relaxed to achieve convergence from 2.3925425192113674e-09 to 2.3925425202113675e-09 seconds.
Warning: Simulation tolerance relaxed to achieve convergence from 2.3925425312113679e-09 to 2.3925425322113681e-09 seconds.
Warning: Simulation tolerance relaxed to achieve convergence from 2.3925425412113682e-09 to 2.3925425422113683e-09 seconds.
Warning: Simulation tolerance relaxed to achieve convergence from 2.3925425592113684e-09 to 2.3925425602113686e-09 seconds.
Warning: Simulation tolerance relaxed to achieve convergence from 2.3925425842113697e-09 to 2.3925425852113698e-09 seconds.
Warning: Simulation tolerance relaxed to achieve convergence from 2.3925426432113706e-09 to 2.3925426442113707e-09 seconds.
Warning: Simulation tolerance relaxed to achieve convergence from 2.3925426442113707e-09 to 2.3925426452113709e-09 seconds.
Warning: Simulation tolerance relaxed to achieve convergence from 2.3925426502113712e-09 to 2.3925426512113714e-09 seconds.
Warning: Simulation tolerance relaxed to achieve convergence from 2.3925426532113713e-09 to 2.3925426542113714e-09 seconds.
Warning: Simulation tolerance relaxed to achieve convergence from 2.3925426542113714e-09 to 2.3925426552113716e-09 seconds.
Warning: Simulation tolerance relaxed to achieve convergence from 2.3925426752113721e-09 to 2.3925426762113722e-09 seconds.
Warning: Simulation tolerance relaxed to achieve convergence from 2.3925426762113722e-09 to 2.3925426772113724e-09 seconds.
Warning: Simulation tolerance relaxed to achieve convergence from 2.3925427042113731e-09 to 2.3925427052113732e-09 seconds.
Warning: Simulation tolerance relaxed to achieve convergence from 2.3925427072113731e-09 to 2.3925427082113733e-09 seconds.
Warning: Simulation tolerance relaxed to achieve convergence from 2.3925427082113733e-09 to 2.3925427092113734e-09 seconds.
Warning: Simulation tolerance relaxed to achieve convergence from 2.3925427102113736e-09 to 2.3925427112113737e-09 seconds.
Warning: Simulation tolerance relaxed to achieve convergence from 2.3925427112113737e-09 to 2.3925427122113739e-09 seconds.
Warning: Simulation tolerance relaxed to achieve convergence from 2.3925427122113739e-09 to 2.3925427132113740e-09 seconds.
Warning: Simulation tolerance relaxed to achieve convergence from 2.3925427202113742e-09 to 2.3925427212113744e-09 seconds.
Warning: Simulation tolerance relaxed to achieve convergence from 2.3925427262113747e-09 to 2.3925427272113749e-09 seconds.
Warning: Simulation tolerance relaxed to achieve convergence from 2.3925427272113749e-09 to 2.3925427282113750e-09 seconds.
Warning: Simulation tolerance relaxed to achieve convergence from 2.3925427302113753e-09 to 2.3925427312113755e-09 seconds.
Warning: Simulation tolerance relaxed to achieve convergence from 2.3925427312113755e-09 to 2.3925427322113756e-09 seconds.
Warning: Simulation tolerance relaxed to achieve convergence from 2.3925427382113757e-09 to 2.3925427392113758e-09 seconds.
Warning: Simulation tolerance relaxed to achieve convergence from 2.3925427442113762e-09 to 2.3925427452113763e-09 seconds.
Warning: Simulation tolerance relaxed to achieve convergence from 2.3925427512113764e-09 to 2.3925427522113765e-09 seconds.
Warning: Simulation tolerance relaxed to achieve convergence from 2.3925427522113765e-09 to 2.3925427532113767e-09 seconds.
Warning: Simulation tolerance relaxed to achieve convergence from 2.3925427532113767e-09 to 2.3925427542113768e-09 seconds.
Warning: Simulation tolerance relaxed to achieve convergence from 2.3925429032113775e-09 to 2.3925429042113777e-09 seconds.
Warning: Simulation tolerance relaxed to achieve convergence from 2.3925429252113783e-09 to 2.3925429262113785e-09 seconds.
Warning: Simulation tolerance relaxed to achieve convergence from 2.3925429262113785e-09 to 2.3925429272113786e-09 seconds.
Warning: Simulation tolerance relaxed to achieve convergence from 2.3925429272113786e-09 to 2.3925429282113788e-09 seconds.
Warning: Simulation tolerance relaxed to achieve convergence from 2.3925429422113788e-09 to 2.3925429432113790e-09 seconds.
Warning: Simulation tolerance relaxed to achieve convergence from 2.3925429932113798e-09 to 2.3925429942113800e-09 seconds.
Warning: Simulation tolerance relaxed to achieve convergence from 2.3925429952113801e-09 to 2.3925429962113803e-09 seconds.
Warning: Simulation tolerance relaxed to achieve convergence from 2.3925430332113812e-09 to 2.3925430342113814e-09 seconds.
Warning: Simulation tolerance relaxed to achieve convergence from 2.3925430732113818e-09 to 2.3925430742113820e-09 seconds.
Warning: Simulation tolerance relaxed to achieve convergence from 2.3925430912113820e-09 to 2.3925430922113822e-09 seconds.
Warning: Simulation tolerance relaxed to achieve convergence from 2.3925431232113827e-09 to 2.3925431242113828e-09 seconds.
Warning: Simulation tolerance relaxed to achieve convergence from 2.3925431362113834e-09 to 2.3925431372113835e-09 seconds.
Warning: Simulation tolerance relaxed to achieve convergence from 2.3925431522113837e-09 to 2.3925431532113838e-09 seconds.
Warning: Simulation tolerance relaxed to achieve convergence from 2.3925431662113841e-09 to 2.3925431672113843e-09 seconds.
Warning: Simulation tolerance relaxed to achieve convergence from 2.3925431672113843e-09 to 2.3925431682113844e-09 seconds.
Warning: Simulation tolerance relaxed to achieve convergence from 2.3925431682113844e-09 to 2.3925431692113846e-09 seconds.
Warning: Simulation tolerance relaxed to achieve convergence from 2.3925431732113847e-09 to 2.3925431742113849e-09 seconds.
Warning: Simulation tolerance relaxed to achieve convergence from 2.3925431832113850e-09 to 2.3925431842113851e-09 seconds.
Warning: Simulation tolerance relaxed to achieve convergence from 2.3925431872113852e-09 to 2.3925431882113853e-09 seconds.
Warning: Simulation tolerance relaxed to achieve convergence from 2.3925432202113860e-09 to 2.3925432212113861e-09 seconds.
Warning: Simulation tolerance relaxed to achieve convergence from 2.3925432212113861e-09 to 2.3925432222113863e-09 seconds.
Warning: Simulation tolerance relaxed to achieve convergence from 2.3925432602113878e-09 to 2.3925432612113880e-09 seconds.
Warning: Simulation tolerance relaxed to achieve convergence from 2.3925432922113884e-09 to 2.3925432932113886e-09 seconds.
Warning: Simulation tolerance relaxed to achieve convergence from 2.3925432942113887e-09 to 2.3925432952113889e-09 seconds.
Warning: Simulation tolerance relaxed to achieve convergence from 2.3925432972113888e-09 to 2.3925432982113889e-09 seconds.
Warning: Simulation tolerance relaxed to achieve convergence from 2.3925433122113894e-09 to 2.3925433132113895e-09 seconds.
Warning: Simulation tolerance relaxed to achieve convergence from 2.3925433142113897e-09 to 2.3925433152113898e-09 seconds.
Warning: Simulation tolerance relaxed to achieve convergence from 2.3925433152113898e-09 to 2.3925433162113900e-09 seconds.
Warning: Simulation tolerance relaxed to achieve convergence from 2.3925433232113902e-09 to 2.3925433242113903e-09 seconds.
Warning: Simulation tolerance relaxed to achieve convergence from 2.3925433352113907e-09 to 2.3925433362113909e-09 seconds.
Warning: Simulation tolerance relaxed to achieve convergence from 2.3925433382113908e-09 to 2.3925433392113909e-09 seconds.
Warning: Simulation tolerance relaxed to achieve convergence from 2.3925433572113911e-09 to 2.3925433582113913e-09 seconds.
Warning: Simulation tolerance relaxed to achieve convergence from 2.3925433732113914e-09 to 2.3925433742113916e-09 seconds.
Warning: Simulation tolerance relaxed to achieve convergence from 2.3925433742113916e-09 to 2.3925433752113917e-09 seconds.
Warning: Simulation tolerance relaxed to achieve convergence from 2.3925433752113917e-09 to 2.3925433762113919e-09 seconds.
Warning: Simulation tolerance relaxed to achieve convergence from 2.3925433782113918e-09 to 2.3925433792113919e-09 seconds.
Warning: Simulation tolerance relaxed to achieve convergence from 2.3925433882113928e-09 to 2.3925433892113930e-09 seconds.
Warning: Simulation tolerance relaxed to achieve convergence from 2.3925433892113930e-09 to 2.3925433902113931e-09 seconds.
Warning: Simulation tolerance relaxed to achieve convergence from 2.3925433902113931e-09 to 2.3925433912113933e-09 seconds.
Warning: Simulation tolerance relaxed to achieve convergence from 2.3925434532113934e-09 to 2.3925434542113936e-09 seconds.
Warning: Simulation tolerance relaxed to achieve convergence from 2.3925434762113944e-09 to 2.3925434772113945e-09 seconds.
Warning: Simulation tolerance relaxed to achieve convergence from 2.3925435432113953e-09 to 2.3925435442113954e-09 seconds.
Warning: Simulation tolerance relaxed to achieve convergence from 2.3925435812113956e-09 to 2.3925435822113957e-09 seconds.
Warning: Simulation tolerance relaxed to achieve convergence from 2.3925435862113959e-09 to 2.3925435872113961e-09 seconds.
Warning: Simulation tolerance relaxed to achieve convergence from 2.3925436002113963e-09 to 2.3925436012113965e-09 seconds.
Warning: Simulation tolerance relaxed to achieve convergence from 2.3925436432113966e-09 to 2.3925436442113967e-09 seconds.
Warning: Simulation tolerance relaxed to achieve convergence from 2.3925436492113966e-09 to 2.3925436502113968e-09 seconds.
Warning: Simulation tolerance relaxed to achieve convergence from 2.3925436502113968e-09 to 2.3925436512113969e-09 seconds.
Warning: Simulation tolerance relaxed to achieve convergence from 2.3925436982113969e-09 to 2.3925436992113971e-09 seconds.
Warning: Simulation tolerance relaxed to achieve convergence from 2.3925437052113971e-09 to 2.3925437062113973e-09 seconds.
Warning: Simulation tolerance relaxed to achieve convergence from 2.3925437132113975e-09 to 2.3925437142113976e-09 seconds.
Warning: Simulation tolerance relaxed to achieve convergence from 2.3925437212113979e-09 to 2.3925437222113980e-09 seconds.
Warning: Simulation tolerance relaxed to achieve convergence from 2.3925437412113984e-09 to 2.3925437422113985e-09 seconds.
Warning: Simulation tolerance relaxed to achieve convergence from 2.3925437442113988e-09 to 2.3925437452113990e-09 seconds.
Warning: Simulation tolerance relaxed to achieve convergence from 2.3925437462113991e-09 to 2.3925437472113993e-09 seconds.
Warning: Simulation tolerance relaxed to achieve convergence from 2.3925438472113997e-09 to 2.3925438482113999e-09 seconds.
Warning: Simulation tolerance relaxed to achieve convergence from 2.3925440772114013e-09 to 2.3925440782114015e-09 seconds.
Warning: Simulation tolerance relaxed to achieve convergence from 2.3925440812114015e-09 to 2.3925440822114017e-09 seconds.
Warning: Simulation tolerance relaxed to achieve convergence from 2.3925440842114016e-09 to 2.3925440852114017e-09 seconds.
Warning: Simulation tolerance relaxed to achieve convergence from 2.3925440872114016e-09 to 2.3925440882114017e-09 seconds.
Warning: Simulation tolerance relaxed to achieve convergence from 2.3925440932114017e-09 to 2.3925440942114018e-09 seconds.
Warning: Simulation tolerance relaxed to achieve convergence from 2.3925441002114019e-09 to 2.3925441012114020e-09 seconds.
Warning: Simulation tolerance relaxed to achieve convergence from 2.3925441052114022e-09 to 2.3925441062114024e-09 seconds.
Warning: Simulation tolerance relaxed to achieve convergence from 2.3925441122114024e-09 to 2.3925441132114026e-09 seconds.
Warning: Simulation tolerance relaxed to achieve convergence from 2.3925441132114026e-09 to 2.3925441142114027e-09 seconds.
Warning: Simulation tolerance relaxed to achieve convergence from 2.3925441202114028e-09 to 2.3925441212114029e-09 seconds.
Warning: Simulation tolerance relaxed to achieve convergence from 2.3925441232114028e-09 to 2.3925441242114030e-09 seconds.
Warning: Simulation tolerance relaxed to achieve convergence from 2.3925441302114031e-09 to 2.3925441312114032e-09 seconds.
Warning: Simulation tolerance relaxed to achieve convergence from 2.3925441312114032e-09 to 2.3925441322114033e-09 seconds.
Warning: Simulation tolerance relaxed to achieve convergence from 2.3925442252114036e-09 to 2.3925442262114037e-09 seconds.
Warning: Simulation tolerance relaxed to achieve convergence from 2.3925442282114036e-09 to 2.3925442292114038e-09 seconds.
Warning: Simulation tolerance relaxed to achieve convergence from 2.3925443292114046e-09 to 2.3925443302114048e-09 seconds.
Warning: Simulation tolerance relaxed to achieve convergence from 2.3925443322114051e-09 to 2.3925443332114052e-09 seconds.
Warning: Simulation tolerance relaxed to achieve convergence from 2.3925444612114061e-09 to 2.3925444622114063e-09 seconds.
Warning: Simulation tolerance relaxed to achieve convergence from 2.3925444712114064e-09 to 2.3925444722114065e-09 seconds.
Warning: Simulation tolerance relaxed to achieve convergence from 2.3925445292114076e-09 to 2.3925445302114077e-09 seconds.
Warning: Simulation tolerance relaxed to achieve convergence from 2.3925445392114078e-09 to 2.3925445402114080e-09 seconds.
Warning: Simulation tolerance relaxed to achieve convergence from 2.3925445402114080e-09 to 2.3925445412114081e-09 seconds.
Warning: Simulation tolerance relaxed to achieve convergence from 2.3925446032114087e-09 to 2.3925446042114088e-09 seconds.
Warning: Simulation tolerance relaxed to achieve convergence from 2.3925446762114097e-09 to 2.3925446772114098e-09 seconds.
Warning: Simulation tolerance relaxed to achieve convergence from 2.3925446772114098e-09 to 2.3925446782114100e-09 seconds.
Warning: Simulation tolerance relaxed to achieve convergence from 2.3925447592114105e-09 to 2.3925447602114106e-09 seconds.
Warning: Simulation tolerance relaxed to achieve convergence from 2.3925448022114115e-09 to 2.3925448032114117e-09 seconds.
Warning: Simulation tolerance relaxed to achieve convergence from 2.3925448632114119e-09 to 2.3925448642114121e-09 seconds.
Warning: Simulation tolerance relaxed to achieve convergence from 2.3925448702114121e-09 to 2.3925448712114123e-09 seconds.
Warning: Simulation tolerance relaxed to achieve convergence from 2.3925448712114123e-09 to 2.3925448722114124e-09 seconds.
Warning: Simulation tolerance relaxed to achieve convergence from 2.3925448792114127e-09 to 2.3925448802114128e-09 seconds.
Warning: Simulation tolerance relaxed to achieve convergence from 2.3925448822114127e-09 to 2.3925448832114128e-09 seconds.
Warning: Simulation tolerance relaxed to achieve convergence from 2.3925449062114134e-09 to 2.3925449072114135e-09 seconds.
Warning: Simulation tolerance relaxed to achieve convergence from 2.3925449282114138e-09 to 2.3925449292114139e-09 seconds.
Warning: Simulation tolerance relaxed to achieve convergence from 2.3925449312114138e-09 to 2.3925449322114139e-09 seconds.
Warning: Simulation tolerance relaxed to achieve convergence from 2.3925449322114139e-09 to 2.3925449332114141e-09 seconds.
Warning: Simulation tolerance relaxed to achieve convergence from 2.3925449392114146e-09 to 2.3925449402114147e-09 seconds.
Warning: Simulation tolerance relaxed to achieve convergence from 2.3925449412114149e-09 to 2.3925449422114150e-09 seconds.
Warning: Simulation tolerance relaxed to achieve convergence from 2.3925449422114150e-09 to 2.3925449432114152e-09 seconds.
Warning: Simulation tolerance relaxed to achieve convergence from 2.3925449432114152e-09 to 2.3925449442114153e-09 seconds.
Warning: Simulation tolerance relaxed to achieve convergence from 2.3925449442114153e-09 to 2.3925449452114155e-09 seconds.
Warning: Simulation tolerance relaxed to achieve convergence from 2.3925450692114158e-09 to 2.3925450702114159e-09 seconds.
Warning: Simulation tolerance relaxed to achieve convergence from 2.3925450712114161e-09 to 2.3925450722114162e-09 seconds.
Warning: Simulation tolerance relaxed to achieve convergence from 2.3925450722114162e-09 to 2.3925450732114164e-09 seconds.
Warning: Simulation tolerance relaxed to achieve convergence from 2.3925450792114164e-09 to 2.3925450802114166e-09 seconds.
Warning: Simulation tolerance relaxed to achieve convergence from 2.3925450802114166e-09 to 2.3925450812114167e-09 seconds.
Warning: Simulation tolerance relaxed to achieve convergence from 2.3925450812114167e-09 to 2.3925450822114169e-09 seconds.
Warning: Simulation tolerance relaxed to achieve convergence from 2.3925451582114171e-09 to 2.3925451592114172e-09 seconds.
Warning: Simulation tolerance relaxed to achieve convergence from 2.3925451622114172e-09 to 2.3925451632114174e-09 seconds.
Warning: Simulation tolerance relaxed to achieve convergence from 2.3925451632114174e-09 to 2.3925451642114175e-09 seconds.
Warning: Simulation tolerance relaxed to achieve convergence from 2.3925451702114176e-09 to 2.3925451712114178e-09 seconds.
Warning: Simulation tolerance relaxed to achieve convergence from 2.3925451712114178e-09 to 2.3925451722114179e-09 seconds.
Warning: Simulation tolerance relaxed to achieve convergence from 2.3925451732114181e-09 to 2.3925451742114182e-09 seconds.
Warning: Simulation tolerance relaxed to achieve convergence from 2.3925451792114181e-09 to 2.3925451802114183e-09 seconds.
Warning: Simulation tolerance relaxed to achieve convergence from 2.3925451862114183e-09 to 2.3925451872114185e-09 seconds.
Warning: Simulation tolerance relaxed to achieve convergence from 2.3925453052114204e-09 to 2.3925453062114205e-09 seconds.
Warning: Simulation tolerance relaxed to achieve convergence from 2.3925453382114212e-09 to 2.3925453392114213e-09 seconds.
Warning: Simulation tolerance relaxed to achieve convergence from 2.3925455522114229e-09 to 2.3925455532114231e-09 seconds.
Warning: Simulation tolerance relaxed to achieve convergence from 2.3925455912114234e-09 to 2.3925455922114235e-09 seconds.
Warning: Simulation tolerance relaxed to achieve convergence from 2.3925455992114237e-09 to 2.3925456002114239e-09 seconds.
Warning: Simulation tolerance relaxed to achieve convergence from 2.3925456322114241e-09 to 2.3925456332114242e-09 seconds.
Warning: Simulation tolerance relaxed to achieve convergence from 2.3925456382114242e-09 to 2.3925456392114243e-09 seconds.
Warning: Simulation tolerance relaxed to achieve convergence from 2.3925456402114245e-09 to 2.3925456412114246e-09 seconds.
Warning: Simulation tolerance relaxed to achieve convergence from 2.3925456452114252e-09 to 2.3925456462114254e-09 seconds.
Warning: Simulation tolerance relaxed to achieve convergence from 2.3925456502114255e-09 to 2.3925456512114257e-09 seconds.
Warning: Simulation tolerance relaxed to achieve convergence from 2.3925456542114261e-09 to 2.3925456552114263e-09 seconds.
Warning: Simulation tolerance relaxed to achieve convergence from 2.3925456772114271e-09 to 2.3925456782114272e-09 seconds.
Warning: Simulation tolerance relaxed to achieve convergence from 2.3925456782114272e-09 to 2.3925456792114274e-09 seconds.
Warning: Simulation tolerance relaxed to achieve convergence from 2.3925456932114274e-09 to 2.3925456942114276e-09 seconds.
Warning: Simulation tolerance relaxed to achieve convergence from 2.3925456952114277e-09 to 2.3925456962114279e-09 seconds.
Warning: Simulation tolerance relaxed to achieve convergence from 2.3925456962114279e-09 to 2.3925456972114280e-09 seconds.
Warning: Simulation tolerance relaxed to achieve convergence from 2.3925456992114279e-09 to 2.3925457002114280e-09 seconds.
Warning: Simulation tolerance relaxed to achieve convergence from 2.3925457062114281e-09 to 2.3925457072114283e-09 seconds.
Warning: Simulation tolerance relaxed to achieve convergence from 2.3925457892114289e-09 to 2.3925457902114291e-09 seconds.
Warning: Simulation tolerance relaxed to achieve convergence from 2.3925458192114297e-09 to 2.3925458202114298e-09 seconds.
Warning: Simulation tolerance relaxed to achieve convergence from 2.3925458202114298e-09 to 2.3925458212114300e-09 seconds.
Warning: Simulation tolerance relaxed to achieve convergence from 2.3925458652114303e-09 to 2.3925458662114305e-09 seconds.
Warning: Simulation tolerance relaxed to achieve convergence from 2.3925458832114318e-09 to 2.3925458842114319e-09 seconds.
Warning: Simulation tolerance relaxed to achieve convergence from 2.3925458842114319e-09 to 2.3925458852114321e-09 seconds.
Warning: Simulation tolerance relaxed to achieve convergence from 2.3925458872114319e-09 to 2.3925458882114321e-09 seconds.
Warning: Simulation tolerance relaxed to achieve convergence from 2.3925458892114322e-09 to 2.3925458902114324e-09 seconds.
Warning: Simulation tolerance relaxed to achieve convergence from 2.3925458922114323e-09 to 2.3925458932114324e-09 seconds.
Warning: Simulation tolerance relaxed to achieve convergence from 2.3925459512114324e-09 to 2.3925459522114325e-09 seconds.
Warning: Simulation tolerance relaxed to achieve convergence from 2.3925459572114325e-09 to 2.3925459582114326e-09 seconds.
Warning: Simulation tolerance relaxed to achieve convergence from 2.3925459682114329e-09 to 2.3925459692114330e-09 seconds.
Warning: Simulation tolerance relaxed to achieve convergence from 2.3925460002114331e-09 to 2.3925460012114332e-09 seconds.
Warning: Simulation tolerance relaxed to achieve convergence from 2.3925460012114332e-09 to 2.3925460022114334e-09 seconds.
Warning: Simulation tolerance relaxed to achieve convergence from 2.3925460132114338e-09 to 2.3925460142114339e-09 seconds.
Warning: Simulation tolerance relaxed to achieve convergence from 2.3925460142114339e-09 to 2.3925460152114341e-09 seconds.
Warning: Simulation tolerance relaxed to achieve convergence from 2.3925460212114346e-09 to 2.3925460222114347e-09 seconds.
Warning: Simulation tolerance relaxed to achieve convergence from 2.3925460252114348e-09 to 2.3925460262114349e-09 seconds.
Warning: Simulation tolerance relaxed to achieve convergence from 2.3925460332114351e-09 to 2.3925460342114353e-09 seconds.
Warning: Simulation tolerance relaxed to achieve convergence from 2.3925460562114357e-09 to 2.3925460572114358e-09 seconds.
Warning: Simulation tolerance relaxed to achieve convergence from 2.3925460612114360e-09 to 2.3925460622114361e-09 seconds.
Warning: Simulation tolerance relaxed to achieve convergence from 2.3925461032114377e-09 to 2.3925461042114379e-09 seconds.
Warning: Simulation tolerance relaxed to achieve convergence from 2.3925461132114380e-09 to 2.3925461142114381e-09 seconds.
Warning: Simulation tolerance relaxed to achieve convergence from 2.3925461182114383e-09 to 2.3925461192114384e-09 seconds.
Warning: Simulation tolerance relaxed to achieve convergence from 2.3925461262114387e-09 to 2.3925461272114388e-09 seconds.
Warning: Simulation tolerance relaxed to achieve convergence from 2.3925461292114387e-09 to 2.3925461302114388e-09 seconds.
Warning: Simulation tolerance relaxed to achieve convergence from 2.3925461622114391e-09 to 2.3925461632114392e-09 seconds.
Warning: Simulation tolerance relaxed to achieve convergence from 2.3925461742114400e-09 to 2.3925461752114402e-09 seconds.
Warning: Simulation tolerance relaxed to achieve convergence from 2.3925461752114402e-09 to 2.3925461762114403e-09 seconds.
Warning: Simulation tolerance relaxed to achieve convergence from 2.3925462692114406e-09 to 2.3925462702114407e-09 seconds.
Warning: Simulation tolerance relaxed to achieve convergence from 2.3925463392114431e-09 to 2.3925463402114433e-09 seconds.
Warning: Simulation tolerance relaxed to achieve convergence from 2.3925463422114436e-09 to 2.3925463432114437e-09 seconds.
Warning: Simulation tolerance relaxed to achieve convergence from 2.3925463432114437e-09 to 2.3925463442114439e-09 seconds.
Warning: Simulation tolerance relaxed to achieve convergence from 2.3925463512114441e-09 to 2.3925463522114443e-09 seconds.
Warning: Simulation tolerance relaxed to achieve convergence from 2.3925463552114443e-09 to 2.3925463562114444e-09 seconds.
Warning: Simulation tolerance relaxed to achieve convergence from 2.3925463562114444e-09 to 2.3925463572114446e-09 seconds.
Warning: Simulation tolerance relaxed to achieve convergence from 2.3925463582114447e-09 to 2.3925463592114449e-09 seconds.
Warning: Simulation tolerance relaxed to achieve convergence from 2.3925463892114448e-09 to 2.3925463902114450e-09 seconds.
Warning: Simulation tolerance relaxed to achieve convergence from 2.3925463902114450e-09 to 2.3925463912114451e-09 seconds.
Warning: Simulation tolerance relaxed to achieve convergence from 2.3925463972114452e-09 to 2.3925463982114453e-09 seconds.
Warning: Simulation tolerance relaxed to achieve convergence from 2.3925464032114452e-09 to 2.3925464042114454e-09 seconds.
Warning: Simulation tolerance relaxed to achieve convergence from 2.3925464132114455e-09 to 2.3925464142114457e-09 seconds.
Warning: Simulation tolerance relaxed to achieve convergence from 2.3925464142114457e-09 to 2.3925464152114458e-09 seconds.
Warning: Simulation tolerance relaxed to achieve convergence from 2.3925464152114458e-09 to 2.3925464162114459e-09 seconds.
Warning: Simulation tolerance relaxed to achieve convergence from 2.3925464162114459e-09 to 2.3925464172114461e-09 seconds.
Warning: Simulation tolerance relaxed to achieve convergence from 2.3925464172114461e-09 to 2.3925464182114462e-09 seconds.
Warning: Simulation tolerance relaxed to achieve convergence from 2.3925464242114463e-09 to 2.3925464252114465e-09 seconds.
Warning: Simulation tolerance relaxed to achieve convergence from 2.3925464282114465e-09 to 2.3925464292114466e-09 seconds.
Warning: Simulation tolerance relaxed to achieve convergence from 2.3925464342114470e-09 to 2.3925464352114471e-09 seconds.
Warning: Simulation tolerance relaxed to achieve convergence from 2.3925464352114471e-09 to 2.3925464362114473e-09 seconds.
Warning: Simulation tolerance relaxed to achieve convergence from 2.3925464382114476e-09 to 2.3925464392114477e-09 seconds.
Warning: Simulation tolerance relaxed to achieve convergence from 2.3925464432114479e-09 to 2.3925464442114481e-09 seconds.
Warning: Simulation tolerance relaxed to achieve convergence from 2.3925464472114481e-09 to 2.3925464482114482e-09 seconds.
Warning: Simulation tolerance relaxed to achieve convergence from 2.3925465192114489e-09 to 2.3925465202114491e-09 seconds.
Warning: Simulation tolerance relaxed to achieve convergence from 2.3925465232114491e-09 to 2.3925465242114492e-09 seconds.
Warning: Simulation tolerance relaxed to achieve convergence from 2.3925465242114492e-09 to 2.3925465252114494e-09 seconds.
Warning: Simulation tolerance relaxed to achieve convergence from 2.3925465372114499e-09 to 2.3925465382114501e-09 seconds.
Warning: Simulation tolerance relaxed to achieve convergence from 2.3925465472114502e-09 to 2.3925465482114503e-09 seconds.
Warning: Simulation tolerance relaxed to achieve convergence from 2.3925465492114505e-09 to 2.3925465502114506e-09 seconds.
Warning: Simulation tolerance relaxed to achieve convergence from 2.3925465572114509e-09 to 2.3925465582114510e-09 seconds.
Warning: Simulation tolerance relaxed to achieve convergence from 2.3925465682114513e-09 to 2.3925465692114514e-09 seconds.
Warning: Simulation tolerance relaxed to achieve convergence from 2.3925465922114519e-09 to 2.3925465932114521e-09 seconds.
Warning: Simulation tolerance relaxed to achieve convergence from 2.3925466282114524e-09 to 2.3925466292114525e-09 seconds.
Warning: Simulation tolerance relaxed to achieve convergence from 2.3925466292114525e-09 to 2.3925466302114527e-09 seconds.
Warning: Simulation tolerance relaxed to achieve convergence from 2.3925466302114527e-09 to 2.3925466312114528e-09 seconds.
Warning: Simulation tolerance relaxed to achieve convergence from 2.3925466802114531e-09 to 2.3925466812114532e-09 seconds.
Warning: Simulation tolerance relaxed to achieve convergence from 2.3925466892114536e-09 to 2.3925466902114537e-09 seconds.
Warning: Simulation tolerance relaxed to achieve convergence from 2.3925466912114539e-09 to 2.3925466922114540e-09 seconds.
Warning: Simulation tolerance relaxed to achieve convergence from 2.3925466932114542e-09 to 2.3925466942114543e-09 seconds.
Warning: Simulation tolerance relaxed to achieve convergence from 2.3925466962114542e-09 to 2.3925466972114544e-09 seconds.
Warning: Simulation tolerance relaxed to achieve convergence from 2.3925466972114544e-09 to 2.3925466982114545e-09 seconds.
Warning: Simulation tolerance relaxed to achieve convergence from 2.3925466992114547e-09 to 2.3925467002114548e-09 seconds.
Warning: Simulation tolerance relaxed to achieve convergence from 2.3925467032114553e-09 to 2.3925467042114554e-09 seconds.
Warning: Simulation tolerance relaxed to achieve convergence from 2.3925467692114560e-09 to 2.3925467702114562e-09 seconds.
Warning: Simulation tolerance relaxed to achieve convergence from 2.3925468122114566e-09 to 2.3925468132114568e-09 seconds.
Warning: Simulation tolerance relaxed to achieve convergence from 2.3925468522114572e-09 to 2.3925468532114574e-09 seconds.
Warning: Simulation tolerance relaxed to achieve convergence from 2.3925468632114581e-09 to 2.3925468642114582e-09 seconds.
Warning: Simulation tolerance relaxed to achieve convergence from 2.3925468642114582e-09 to 2.3925468652114584e-09 seconds.
Warning: Simulation tolerance relaxed to achieve convergence from 2.3925468652114584e-09 to 2.3925468662114585e-09 seconds.
Warning: Simulation tolerance relaxed to achieve convergence from 2.3925468672114586e-09 to 2.3925468682114588e-09 seconds.
Warning: Simulation tolerance relaxed to achieve convergence from 2.3925468742114589e-09 to 2.3925468752114590e-09 seconds.
Warning: Simulation tolerance relaxed to achieve convergence from 2.3925468762114592e-09 to 2.3925468772114593e-09 seconds.
Warning: Simulation tolerance relaxed to achieve convergence from 2.3925468822114596e-09 to 2.3925468832114598e-09 seconds.
Warning: Simulation tolerance relaxed to achieve convergence from 2.3925468832114598e-09 to 2.3925468842114599e-09 seconds.
Warning: Simulation tolerance relaxed to achieve convergence from 2.3925468852114601e-09 to 2.3925468862114602e-09 seconds.
Warning: Simulation tolerance relaxed to achieve convergence from 2.3925468862114602e-09 to 2.3925468872114604e-09 seconds.
Warning: Simulation tolerance relaxed to achieve convergence from 2.3925469732114604e-09 to 2.3925469742114606e-09 seconds.
Warning: Simulation tolerance relaxed to achieve convergence from 2.3925469742114606e-09 to 2.3925469752114607e-09 seconds.
Warning: Simulation tolerance relaxed to achieve convergence from 2.3925469752114607e-09 to 2.3925469762114609e-09 seconds.
Warning: Simulation tolerance relaxed to achieve convergence from 2.3925469792114609e-09 to 2.3925469802114610e-09 seconds.
Warning: Simulation tolerance relaxed to achieve convergence from 2.3925469822114609e-09 to 2.3925469832114611e-09 seconds.
Warning: Simulation tolerance relaxed to achieve convergence from 2.3925469852114614e-09 to 2.3925469862114615e-09 seconds.
Warning: Simulation tolerance relaxed to achieve convergence from 2.3925469862114615e-09 to 2.3925469872114617e-09 seconds.
Warning: Simulation tolerance relaxed to achieve convergence from 2.3925469872114617e-09 to 2.3925469882114618e-09 seconds.
Warning: Simulation tolerance relaxed to achieve convergence from 2.3925470202114620e-09 to 2.3925470212114622e-09 seconds.
Warning: Simulation tolerance relaxed to achieve convergence from 2.3925470592114625e-09 to 2.3925470602114626e-09 seconds.
Warning: Simulation tolerance relaxed to achieve convergence from 2.3925470672114628e-09 to 2.3925470682114630e-09 seconds.
Warning: Simulation tolerance relaxed to achieve convergence from 2.3925471212114639e-09 to 2.3925471222114640e-09 seconds.
Warning: Simulation tolerance relaxed to achieve convergence from 2.3925471732114642e-09 to 2.3925471742114643e-09 seconds.
Warning: Simulation tolerance relaxed to achieve convergence from 2.3925471762114646e-09 to 2.3925471772114648e-09 seconds.
Warning: Simulation tolerance relaxed to achieve convergence from 2.3925472532114654e-09 to 2.3925472542114655e-09 seconds.
Warning: Simulation tolerance relaxed to achieve convergence from 2.3925473172114667e-09 to 2.3925473182114668e-09 seconds.
Warning: Simulation tolerance relaxed to achieve convergence from 2.3925473182114668e-09 to 2.3925473192114669e-09 seconds.
Warning: Simulation tolerance relaxed to achieve convergence from 2.3925473222114670e-09 to 2.3925473232114671e-09 seconds.
Warning: Simulation tolerance relaxed to achieve convergence from 2.3925473432114672e-09 to 2.3925473442114674e-09 seconds.
Warning: Simulation tolerance relaxed to achieve convergence from 2.3925473452114675e-09 to 2.3925473462114677e-09 seconds.
Warning: Simulation tolerance relaxed to achieve convergence from 2.3925473462114677e-09 to 2.3925473472114678e-09 seconds.
Warning: Simulation tolerance relaxed to achieve convergence from 2.3925473502114683e-09 to 2.3925473512114684e-09 seconds.
Warning: Simulation tolerance relaxed to achieve convergence from 2.3925473932114689e-09 to 2.3925473942114690e-09 seconds.
Warning: Simulation tolerance relaxed to achieve convergence from 2.3925473992114690e-09 to 2.3925474002114691e-09 seconds.
Warning: Simulation tolerance relaxed to achieve convergence from 2.3925474072114693e-09 to 2.3925474082114695e-09 seconds.
Warning: Simulation tolerance relaxed to achieve convergence from 2.3925474262114701e-09 to 2.3925474272114702e-09 seconds.
Warning: Simulation tolerance relaxed to achieve convergence from 2.3925475402114706e-09 to 2.3925475412114707e-09 seconds.
Warning: Simulation tolerance relaxed to achieve convergence from 2.3925475422114709e-09 to 2.3925475432114710e-09 seconds.
Warning: Simulation tolerance relaxed to achieve convergence from 2.3925475482114709e-09 to 2.3925475492114711e-09 seconds.
Warning: Simulation tolerance relaxed to achieve convergence from 2.3925475902114722e-09 to 2.3925475912114724e-09 seconds.
Warning: Simulation tolerance relaxed to achieve convergence from 2.3925476802114737e-09 to 2.3925476812114738e-09 seconds.
Warning: Simulation tolerance relaxed to achieve convergence from 2.3925476822114740e-09 to 2.3925476832114741e-09 seconds.
Warning: Simulation tolerance relaxed to achieve convergence from 2.3925477012114743e-09 to 2.3925477022114745e-09 seconds.
Warning: Simulation tolerance relaxed to achieve convergence from 2.3925477022114745e-09 to 2.3925477032114746e-09 seconds.
Warning: Simulation tolerance relaxed to achieve convergence from 2.3925477192114749e-09 to 2.3925477202114751e-09 seconds.
Warning: Simulation tolerance relaxed to achieve convergence from 2.3925477232114751e-09 to 2.3925477242114753e-09 seconds.
Warning: Simulation tolerance relaxed to achieve convergence from 2.3925477242114753e-09 to 2.3925477252114754e-09 seconds.
Warning: Simulation tolerance relaxed to achieve convergence from 2.3925477602114757e-09 to 2.3925477612114758e-09 seconds.
Warning: Simulation tolerance relaxed to achieve convergence from 2.3925477722114758e-09 to 2.3925477732114760e-09 seconds.
Warning: Simulation tolerance relaxed to achieve convergence from 2.3925477842114764e-09 to 2.3925477852114765e-09 seconds.
Warning: Simulation tolerance relaxed to achieve convergence from 2.3925478202114772e-09 to 2.3925478212114773e-09 seconds.
Warning: Simulation tolerance relaxed to achieve convergence from 2.3925478222114775e-09 to 2.3925478232114776e-09 seconds.
Warning: Simulation tolerance relaxed to achieve convergence from 2.3925478232114776e-09 to 2.3925478242114778e-09 seconds.
Warning: Simulation tolerance relaxed to achieve convergence from 2.3925478592114780e-09 to 2.3925478602114782e-09 seconds.
Warning: Simulation tolerance relaxed to achieve convergence from 2.3925478612114783e-09 to 2.3925478622114785e-09 seconds.
Warning: Simulation tolerance relaxed to achieve convergence from 2.3925479102114790e-09 to 2.3925479112114792e-09 seconds.
Warning: Simulation tolerance relaxed to achieve convergence from 2.3925479122114793e-09 to 2.3925479132114795e-09 seconds.
Warning: Simulation tolerance relaxed to achieve convergence from 2.3925479332114796e-09 to 2.3925479342114797e-09 seconds.
Warning: Simulation tolerance relaxed to achieve convergence from 2.3925479342114797e-09 to 2.3925479352114799e-09 seconds.
Warning: Simulation tolerance relaxed to achieve convergence from 2.3925479642114801e-09 to 2.3925479652114802e-09 seconds.
Warning: Simulation tolerance relaxed to achieve convergence from 2.3925479712114803e-09 to 2.3925479722114804e-09 seconds.
Warning: Simulation tolerance relaxed to achieve convergence from 2.3925479792114806e-09 to 2.3925479802114808e-09 seconds.
Warning: Simulation tolerance relaxed to achieve convergence from 2.3925479922114809e-09 to 2.3925479932114811e-09 seconds.
Warning: Simulation tolerance relaxed to achieve convergence from 2.3925480662114820e-09 to 2.3925480672114822e-09 seconds.
Warning: Simulation tolerance relaxed to achieve convergence from 2.3925481282114826e-09 to 2.3925481292114828e-09 seconds.
Warning: Simulation tolerance relaxed to achieve convergence from 2.3925481892114843e-09 to 2.3925481902114844e-09 seconds.
Warning: Simulation tolerance relaxed to achieve convergence from 2.3925481922114847e-09 to 2.3925481932114849e-09 seconds.
Warning: Simulation tolerance relaxed to achieve convergence from 2.3925481932114849e-09 to 2.3925481942114850e-09 seconds.
Warning: Simulation tolerance relaxed to achieve convergence from 2.3925481942114850e-09 to 2.3925481952114852e-09 seconds.
Warning: Simulation tolerance relaxed to achieve convergence from 2.3925481952114852e-09 to 2.3925481962114853e-09 seconds.
Warning: Simulation tolerance relaxed to achieve convergence from 2.3925481992114853e-09 to 2.3925482002114855e-09 seconds.
Warning: Simulation tolerance relaxed to achieve convergence from 2.3925482592114860e-09 to 2.3925482602114862e-09 seconds.
Warning: Simulation tolerance relaxed to achieve convergence from 2.3925482712114866e-09 to 2.3925482722114867e-09 seconds.
Warning: Simulation tolerance relaxed to achieve convergence from 2.3925482802114867e-09 to 2.3925482812114868e-09 seconds.
Warning: Simulation tolerance relaxed to achieve convergence from 2.3925483862114876e-09 to 2.3925483872114878e-09 seconds.
Warning: Simulation tolerance relaxed to achieve convergence from 2.3925483872114878e-09 to 2.3925483882114879e-09 seconds.
Warning: Simulation tolerance relaxed to achieve convergence from 2.3925483902114878e-09 to 2.3925483912114879e-09 seconds.
Warning: Simulation tolerance relaxed to achieve convergence from 2.3925485012114899e-09 to 2.3925485022114900e-09 seconds.
Warning: Simulation tolerance relaxed to achieve convergence from 2.3925485042114899e-09 to 2.3925485052114901e-09 seconds.
Warning: Simulation tolerance relaxed to achieve convergence from 2.3925485062114902e-09 to 2.3925485072114904e-09 seconds.
Warning: Simulation tolerance relaxed to achieve convergence from 2.3925485252114906e-09 to 2.3925485262114907e-09 seconds.
Warning: Simulation tolerance relaxed to achieve convergence from 2.3925487412114943e-09 to 2.3925487422114944e-09 seconds.
Warning: Simulation tolerance relaxed to achieve convergence from 2.3925487502114948e-09 to 2.3925487512114949e-09 seconds.
Warning: Simulation tolerance relaxed to achieve convergence from 2.3925487582114951e-09 to 2.3925487592114953e-09 seconds.
Warning: Simulation tolerance relaxed to achieve convergence from 2.3925487612114952e-09 to 2.3925487622114953e-09 seconds.
Warning: Simulation tolerance relaxed to achieve convergence from 2.3925487622114953e-09 to 2.3925487632114955e-09 seconds.
Warning: Simulation tolerance relaxed to achieve convergence from 2.3925487642114956e-09 to 2.3925487652114958e-09 seconds.
Warning: Simulation tolerance relaxed to achieve convergence from 2.3925487652114958e-09 to 2.3925487662114959e-09 seconds.
Warning: Simulation tolerance relaxed to achieve convergence from 2.3925487672114961e-09 to 2.3925487682114962e-09 seconds.
Warning: Simulation tolerance relaxed to achieve convergence from 2.3925487722114964e-09 to 2.3925487732114965e-09 seconds.
Warning: Simulation tolerance relaxed to achieve convergence from 2.3925487732114965e-09 to 2.3925487742114967e-09 seconds.
[...]
Warning: Simulation tolerance relaxed to achieve convergence from 2.3925771092121015e-09 to 2.3925771102121017e-09 seconds.
Warning: Simulation tolerance relaxed to achieve convergence from 2.3925771142121019e-09 to 2.3925771152121020e-09 seconds.
Warning: Simulation tolerance relaxed to achieve convergence from 2.3925771182121021e-09 to 2.3925771192121022e-09 seconds.
Warning: Simulation tolerance relaxed to achieve convergence from 2.3925771252121023e-09 to 2.3925771262121024e-09 seconds.
Warning: Simulation tolerance relaxed to achieve convergence from 2.3925771952121028e-09 to 2.3925771962121029e-09 seconds.
Warning: Simulation tolerance relaxed to achieve convergence from 2.3925771992121030e-09 to 2.3925772002121031e-09 seconds.
Warning: Simulation tolerance relaxed to achieve convergence from 2.3925772012121033e-09 to 2.3925772022121034e-09 seconds.
Warning: Simulation tolerance relaxed to achieve convergence from 2.3925772032121036e-09 to 2.3925772042121037e-09 seconds.
Warning: Simulation tolerance relaxed to achieve convergence from 2.3925772052121039e-09 to 2.3925772062121040e-09 seconds.
Warning: Simulation tolerance relaxed to achieve convergence from 2.3925772372121041e-09 to 2.3925772382121043e-09 seconds.
Warning: Simulation tolerance relaxed to achieve convergence from 2.3925772422121044e-09 to 2.3925772432121046e-09 seconds.
Warning: Simulation tolerance relaxed to achieve convergence from 2.3925772812121049e-09 to 2.3925772822121050e-09 seconds.
Warning: Simulation tolerance relaxed to achieve convergence from 2.3925773182121054e-09 to 2.3925773192121056e-09 seconds.
Warning: Simulation tolerance relaxed to achieve convergence from 2.3925773352121055e-09 to 2.3925773362121056e-09 seconds.
Warning: Simulation tolerance relaxed to achieve convergence from 2.3925773992121059e-09 to 2.3925774002121061e-09 seconds.
Warning: Simulation tolerance relaxed to achieve convergence from 2.3925774022121060e-09 to 2.3925774032121061e-09 seconds.
Warning: Simulation tolerance relaxed to achieve convergence from 2.3925774162121068e-09 to 2.3925774172121070e-09 seconds.
Warning: Simulation tolerance relaxed to achieve convergence from 2.3925774232121070e-09 to 2.3925774242121072e-09 seconds.
Warning: Simulation tolerance relaxed to achieve convergence from 2.3925774302121073e-09 to 2.3925774312121074e-09 seconds.
Warning: Simulation tolerance relaxed to achieve convergence from 2.3925774352121076e-09 to 2.3925774362121077e-09 seconds.
Warning: Simulation tolerance relaxed to achieve convergence from 2.3925774372121079e-09 to 2.3925774382121080e-09 seconds.
Warning: Simulation tolerance relaxed to achieve convergence from 2.3925774382121080e-09 to 2.3925774392121082e-09 seconds.
Warning: Simulation tolerance relaxed to achieve convergence from 2.3925774392121082e-09 to 2.3925774402121083e-09 seconds.
Warning: Simulation tolerance relaxed to achieve convergence from 2.3925775122121092e-09 to 2.3925775132121093e-09 seconds.
Warning: Simulation tolerance relaxed to achieve convergence from 2.3925775252121094e-09 to 2.3925775262121096e-09 seconds.
Warning: Simulation tolerance relaxed to achieve convergence from 2.3925775262121096e-09 to 2.3925775272121097e-09 seconds.
Warning: Simulation tolerance relaxed to achieve convergence from 2.3925775692121098e-09 to 2.3925775702121099e-09 seconds.
Warning: Simulation tolerance relaxed to achieve convergence from 2.3925775942121102e-09 to 2.3925775952121104e-09 seconds.
Warning: Simulation tolerance relaxed to achieve convergence from 2.3925776052121110e-09 to 2.3925776062121112e-09 seconds.
Warning: Simulation tolerance relaxed to achieve convergence from 2.3925776102121114e-09 to 2.3925776112121115e-09 seconds.
Warning: Simulation tolerance relaxed to achieve convergence from 2.3925776172121116e-09 to 2.3925776182121117e-09 seconds.
Warning: Simulation tolerance relaxed to achieve convergence from 2.3925776672121120e-09 to 2.3925776682121122e-09 seconds.
Warning: Simulation tolerance relaxed to achieve convergence from 2.3925777052121127e-09 to 2.3925777062121129e-09 seconds.
Warning: Simulation tolerance relaxed to achieve convergence from 2.3925777122121129e-09 to 2.3925777132121131e-09 seconds.
Warning: Simulation tolerance relaxed to achieve convergence from 2.3925777272121131e-09 to 2.3925777282121133e-09 seconds.
Warning: Simulation tolerance relaxed to achieve convergence from 2.3925777302121131e-09 to 2.3925777312121133e-09 seconds.
Warning: Simulation tolerance relaxed to achieve convergence from 2.3925777312121133e-09 to 2.3925777322121134e-09 seconds.
Warning: Simulation tolerance relaxed to achieve convergence from 2.3925777342121133e-09 to 2.3925777352121135e-09 seconds.
Warning: Simulation tolerance relaxed to achieve convergence from 2.3925777932121134e-09 to 2.3925777942121136e-09 seconds.
Warning: Simulation tolerance relaxed to achieve convergence from 2.3925777952121137e-09 to 2.3925777962121139e-09 seconds.
Warning: Simulation tolerance relaxed to achieve convergence from 2.3925778002121145e-09 to 2.3925778012121146e-09 seconds.
Warning: Simulation tolerance relaxed to achieve convergence from 2.3925778482121146e-09 to 2.3925778492121148e-09 seconds.
Warning: Simulation tolerance relaxed to achieve convergence from 2.3925778592121150e-09 to 2.3925778602121152e-09 seconds.
Warning: Simulation tolerance relaxed to achieve convergence from 2.3925778672121154e-09 to 2.3925778682121155e-09 seconds.
Warning: Simulation tolerance relaxed to achieve convergence from 2.3925779632121165e-09 to 2.3925779642121166e-09 seconds.
Warning: Simulation tolerance relaxed to achieve convergence from 2.3925779732121167e-09 to 2.3925779742121169e-09 seconds.
Warning: Simulation tolerance relaxed to achieve convergence from 2.3925779812121171e-09 to 2.3925779822121172e-09 seconds.
Warning: Simulation tolerance relaxed to achieve convergence from 2.3925780052121178e-09 to 2.3925780062121179e-09 seconds.
Warning: Simulation tolerance relaxed to achieve convergence from 2.3925781072121198e-09 to 2.3925781082121199e-09 seconds.
Warning: Simulation tolerance relaxed to achieve convergence from 2.3925781142121200e-09 to 2.3925781152121201e-09 seconds.
Warning: Simulation tolerance relaxed to achieve convergence from 2.3925781292121202e-09 to 2.3925781302121203e-09 seconds.
Warning: Simulation tolerance relaxed to achieve convergence from 2.3925781602121202e-09 to 2.3925781612121204e-09 seconds.
Warning: Simulation tolerance relaxed to achieve convergence from 2.3925782562121213e-09 to 2.3925782572121215e-09 seconds.
Warning: Simulation tolerance relaxed to achieve convergence from 2.3925782662121216e-09 to 2.3925782672121217e-09 seconds.
Warning: Simulation tolerance relaxed to achieve convergence from 2.3925783132121228e-09 to 2.3925783142121229e-09 seconds.
Warning: Simulation tolerance relaxed to achieve convergence from 2.3925783172121230e-09 to 2.3925783182121231e-09 seconds.
Warning: Simulation tolerance relaxed to achieve convergence from 2.3925783282121234e-09 to 2.3925783292121235e-09 seconds.
Warning: Simulation tolerance relaxed to achieve convergence from 2.3925783302121237e-09 to 2.3925783312121238e-09 seconds.
Warning: Simulation tolerance relaxed to achieve convergence from 2.3925783312121238e-09 to 2.3925783322121240e-09 seconds.
Warning: Simulation tolerance relaxed to achieve convergence from 2.3925783572121244e-09 to 2.3925783582121245e-09 seconds.
Warning: Simulation tolerance relaxed to achieve convergence from 2.3925784202121259e-09 to 2.3925784212121261e-09 seconds.
Warning: Simulation tolerance relaxed to achieve convergence from 2.3925784272121262e-09 to 2.3925784282121263e-09 seconds.
Warning: Simulation tolerance relaxed to achieve convergence from 2.3925784302121262e-09 to 2.3925784312121263e-09 seconds.
Warning: Simulation tolerance relaxed to achieve convergence from 2.3925784312121263e-09 to 2.3925784322121265e-09 seconds.
Warning: Simulation tolerance relaxed to achieve convergence from 2.3925784402121269e-09 to 2.3925784412121270e-09 seconds.
Warning: Simulation tolerance relaxed to achieve convergence from 2.3925784412121270e-09 to 2.3925784422121272e-09 seconds.
Warning: Simulation tolerance relaxed to achieve convergence from 2.3925784492121274e-09 to 2.3925784502121275e-09 seconds.
Warning: Simulation tolerance relaxed to achieve convergence from 2.3925784522121274e-09 to 2.3925784532121276e-09 seconds.
Warning: Simulation tolerance relaxed to achieve convergence from 2.3925784552121274e-09 to 2.3925784562121276e-09 seconds.
Warning: Simulation tolerance relaxed to achieve convergence from 2.3925784622121277e-09 to 2.3925784632121278e-09 seconds.
Warning: Simulation tolerance relaxed to achieve convergence from 2.3925784632121278e-09 to 2.3925784642121280e-09 seconds.
Warning: Simulation tolerance relaxed to achieve convergence from 2.3925784642121280e-09 to 2.3925784652121281e-09 seconds.
Warning: Simulation tolerance relaxed to achieve convergence from 2.3925784692121283e-09 to 2.3925784702121284e-09 seconds.
Warning: Simulation tolerance relaxed to achieve convergence from 2.3925784702121284e-09 to 2.3925784712121286e-09 seconds.
Warning: Simulation tolerance relaxed to achieve convergence from 2.3925784712121286e-09 to 2.3925784722121287e-09 seconds.
Warning: Simulation tolerance relaxed to achieve convergence from 2.3925784722121287e-09 to 2.3925784732121289e-09 seconds.
Warning: Simulation tolerance relaxed to achieve convergence from 2.3925784782121288e-09 to 2.3925784792121289e-09 seconds.
Warning: Simulation tolerance relaxed to achieve convergence from 2.3925784842121289e-09 to 2.3925784852121290e-09 seconds.
Warning: Simulation tolerance relaxed to achieve convergence from 2.3925784942121291e-09 to 2.3925784952121293e-09 seconds.
Warning: Simulation tolerance relaxed to achieve convergence from 2.3925784992121295e-09 to 2.3925785002121296e-09 seconds.
Warning: Simulation tolerance relaxed to achieve convergence from 2.3925785032121296e-09 to 2.3925785042121298e-09 seconds.
Warning: Simulation tolerance relaxed to achieve convergence from 2.3925785042121298e-09 to 2.3925785052121299e-09 seconds.
Warning: Simulation tolerance relaxed to achieve convergence from 2.3925785092121301e-09 to 2.3925785102121303e-09 seconds.
Warning: Simulation tolerance relaxed to achieve convergence from 2.3925785102121303e-09 to 2.3925785112121304e-09 seconds.
Warning: Simulation tolerance relaxed to achieve convergence from 2.3925785592121310e-09 to 2.3925785602121311e-09 seconds.
Warning: Simulation tolerance relaxed to achieve convergence from 2.3925785622121310e-09 to 2.3925785632121311e-09 seconds.
Warning: Simulation tolerance relaxed to achieve convergence from 2.3925785642121313e-09 to 2.3925785652121314e-09 seconds.
Warning: Simulation tolerance relaxed to achieve convergence from 2.3925785752121321e-09 to 2.3925785762121323e-09 seconds.
Warning: Simulation tolerance relaxed to achieve convergence from 2.3925785782121321e-09 to 2.3925785792121323e-09 seconds.
Warning: Simulation tolerance relaxed to achieve convergence from 2.3925785812121322e-09 to 2.3925785822121323e-09 seconds.
Warning: Simulation tolerance relaxed to achieve convergence from 2.3925786012121327e-09 to 2.3925786022121328e-09 seconds.
Warning: Simulation tolerance relaxed to achieve convergence from 2.3925786032121330e-09 to 2.3925786042121331e-09 seconds.
Warning: Simulation tolerance relaxed to achieve convergence from 2.3925786902121331e-09 to 2.3925786912121333e-09 seconds.
Warning: Simulation tolerance relaxed to achieve convergence from 2.3925787062121339e-09 to 2.3925787072121340e-09 seconds.
Warning: Simulation tolerance relaxed to achieve convergence from 2.3925787132121341e-09 to 2.3925787142121342e-09 seconds.
Warning: Simulation tolerance relaxed to achieve convergence from 2.3925787362121350e-09 to 2.3925787372121352e-09 seconds.
Warning: Simulation tolerance relaxed to achieve convergence from 2.3925787392121351e-09 to 2.3925787402121352e-09 seconds.
Warning: Simulation tolerance relaxed to achieve convergence from 2.3925787512121356e-09 to 2.3925787522121358e-09 seconds.
Warning: Simulation tolerance relaxed to achieve convergence from 2.3925787542121357e-09 to 2.3925787552121358e-09 seconds.
Warning: Simulation tolerance relaxed to achieve convergence from 2.3925787622121360e-09 to 2.3925787632121362e-09 seconds.
Warning: Simulation tolerance relaxed to achieve convergence from 2.3925788462121378e-09 to 2.3925788472121379e-09 seconds.
Warning: Simulation tolerance relaxed to achieve convergence from 2.3925788522121379e-09 to 2.3925788532121380e-09 seconds.
Warning: Simulation tolerance relaxed to achieve convergence from 2.3925788532121380e-09 to 2.3925788542121382e-09 seconds.
Warning: Simulation tolerance relaxed to achieve convergence from 2.3925788922121385e-09 to 2.3925788932121386e-09 seconds.
Warning: Simulation tolerance relaxed to achieve convergence from 2.3925788932121386e-09 to 2.3925788942121388e-09 seconds.
Warning: Simulation tolerance relaxed to achieve convergence from 2.3925788962121386e-09 to 2.3925788972121388e-09 seconds.
Warning: Simulation tolerance relaxed to achieve convergence from 2.3925789112121388e-09 to 2.3925789122121390e-09 seconds.
Warning: Simulation tolerance relaxed to achieve convergence from 2.3925789122121390e-09 to 2.3925789132121391e-09 seconds.
Warning: Simulation tolerance relaxed to achieve convergence from 2.3925789152121394e-09 to 2.3925789162121396e-09 seconds.
Warning: Simulation tolerance relaxed to achieve convergence from 2.3925789182121399e-09 to 2.3925789192121400e-09 seconds.
Warning: Simulation tolerance relaxed to achieve convergence from 2.3925789272121404e-09 to 2.3925789282121405e-09 seconds.
Warning: Simulation tolerance relaxed to achieve convergence from 2.3925789282121405e-09 to 2.3925789292121407e-09 seconds.
Warning: Simulation tolerance relaxed to achieve convergence from 2.3925789312121410e-09 to 2.3925789322121411e-09 seconds.
Warning: Simulation tolerance relaxed to achieve convergence from 2.3925789322121411e-09 to 2.3925789332121413e-09 seconds.
Warning: Simulation tolerance relaxed to achieve convergence from 2.3925789422121418e-09 to 2.3925789432121419e-09 seconds.
Warning: Simulation tolerance relaxed to achieve convergence from 2.3925789462121420e-09 to 2.3925789472121421e-09 seconds.
Warning: Simulation tolerance relaxed to achieve convergence from 2.3925789532121422e-09 to 2.3925789542121423e-09 seconds.
Warning: Simulation tolerance relaxed to achieve convergence from 2.3925789582121425e-09 to 2.3925789592121427e-09 seconds.
Warning: Simulation tolerance relaxed to achieve convergence from 2.3925789672121430e-09 to 2.3925789682121432e-09 seconds.
Warning: Simulation tolerance relaxed to achieve convergence from 2.3925789952121439e-09 to 2.3925789962121441e-09 seconds.
Warning: Simulation tolerance relaxed to achieve convergence from 2.3925790012121440e-09 to 2.3925790022121441e-09 seconds.
Warning: Simulation tolerance relaxed to achieve convergence from 2.3925790302121446e-09 to 2.3925790312121447e-09 seconds.
Warning: Simulation tolerance relaxed to achieve convergence from 2.3925790442121454e-09 to 2.3925790452121456e-09 seconds.
Warning: Simulation tolerance relaxed to achieve convergence from 2.3925790792121461e-09 to 2.3925790802121462e-09 seconds.
Warning: Simulation tolerance relaxed to achieve convergence from 2.3925790822121461e-09 to 2.3925790832121463e-09 seconds.
Warning: Simulation tolerance relaxed to achieve convergence from 2.3925791642121472e-09 to 2.3925791652121473e-09 seconds.
Warning: Simulation tolerance relaxed to achieve convergence from 2.3925791792121474e-09 to 2.3925791802121475e-09 seconds.
Warning: Simulation tolerance relaxed to achieve convergence from 2.3925791812121477e-09 to 2.3925791822121478e-09 seconds.
Warning: Simulation tolerance relaxed to achieve convergence from 2.3925794242121508e-09 to 2.3925794252121510e-09 seconds.
Warning: Simulation tolerance relaxed to achieve convergence from 2.3925796872121541e-09 to 2.3925796882121542e-09 seconds.
Warning: Simulation tolerance relaxed to achieve convergence from 2.3925798162121551e-09 to 2.3925798172121553e-09 seconds.
Warning: Simulation tolerance relaxed to achieve convergence from 2.3925798232121554e-09 to 2.3925798242121555e-09 seconds.
Warning: Simulation tolerance relaxed to achieve convergence from 2.3925798362121557e-09 to 2.3925798372121558e-09 seconds.
Warning: Simulation tolerance relaxed to achieve convergence from 2.3925798822121563e-09 to 2.3925798832121565e-09 seconds.
Warning: Simulation tolerance relaxed to achieve convergence from 2.3925799762121579e-09 to 2.3925799772121581e-09 seconds.
Warning: Simulation tolerance relaxed to achieve convergence from 2.3925799782121582e-09 to 2.3925799792121584e-09 seconds.
Warning: Simulation tolerance relaxed to achieve convergence from 2.3925800362121594e-09 to 2.3925800372121596e-09 seconds.
Warning: Simulation tolerance relaxed to achieve convergence from 2.3925800402121596e-09 to 2.3925800412121598e-09 seconds.
Warning: Simulation tolerance relaxed to achieve convergence from 2.3925800432121597e-09 to 2.3925800442121598e-09 seconds.
Warning: Simulation tolerance relaxed to achieve convergence from 2.3925800452121600e-09 to 2.3925800462121601e-09 seconds.
Warning: Simulation tolerance relaxed to achieve convergence from 2.3925800472121603e-09 to 2.3925800482121604e-09 seconds.
Warning: Simulation tolerance relaxed to achieve convergence from 2.3925801092121612e-09 to 2.3925801102121614e-09 seconds.
Warning: Simulation tolerance relaxed to achieve convergence from 2.3925801122121613e-09 to 2.3925801132121614e-09 seconds.
Warning: Simulation tolerance relaxed to achieve convergence from 2.3925801162121614e-09 to 2.3925801172121616e-09 seconds.
Warning: Simulation tolerance relaxed to achieve convergence from 2.3925801172121616e-09 to 2.3925801182121617e-09 seconds.
Warning: Simulation tolerance relaxed to achieve convergence from 2.3925801182121617e-09 to 2.3925801192121619e-09 seconds.
Warning: Simulation tolerance relaxed to achieve convergence from 2.3925801192121619e-09 to 2.3925801202121620e-09 seconds.
Warning: Simulation tolerance relaxed to achieve convergence from 2.3925801302121623e-09 to 2.3925801312121624e-09 seconds.
Warning: Simulation tolerance relaxed to achieve convergence from 2.3925801322121626e-09 to 2.3925801332121627e-09 seconds.
Warning: Simulation tolerance relaxed to achieve convergence from 2.3925801352121626e-09 to 2.3925801362121628e-09 seconds.
Warning: Simulation tolerance relaxed to achieve convergence from 2.3925801362121628e-09 to 2.3925801372121629e-09 seconds.
Warning: Simulation tolerance relaxed to achieve convergence from 2.3925801412121631e-09 to 2.3925801422121633e-09 seconds.
Warning: Simulation tolerance relaxed to achieve convergence from 2.3925801422121633e-09 to 2.3925801432121634e-09 seconds.
Warning: Simulation tolerance relaxed to achieve convergence from 2.3925801432121634e-09 to 2.3925801442121636e-09 seconds.
Warning: Simulation tolerance relaxed to achieve convergence from 2.3925801552121640e-09 to 2.3925801562121641e-09 seconds.
Warning: Simulation tolerance relaxed to achieve convergence from 2.3925801592121641e-09 to 2.3925801602121643e-09 seconds.
Warning: Simulation tolerance relaxed to achieve convergence from 2.3925801602121643e-09 to 2.3925801602121643e-09 seconds.

Simulation stopped by user.
Total elapsed time: 38.108 seconds.

Files loaded:
C:\Users\German\Documents\placa_prueba_bq24780s\Simulaciones\modulo_descarga\howland_current_pump.net
C:\Users\German\AppData\Local\LTspice\lib\cmp\standard.bjt
C:\Users\German\Documents\placa_prueba_bq24780s\Simulaciones\modulo_descarga\lmx58_lm2904.lib
C:\Users\German\Documents\placa_prueba_bq24780s\Simulaciones\modulo_descarga\CSD17308Q3.lib

