LTspice 24.1.9 for Windows
Circuit: C:\Users\German\Documents\placa_prueba_bq24780s\Simulaciones\modulo_descarga\modulo_carga_descarga_ac_imp.net
Start Time: Fri Nov  7 20:32:44 2025
solver = Normal
Maximum thread count: 8
tnom = 27
temp = 27
method = trap
Direct Newton iteration failed to find .op point.  (Use ".option noopiter" to skip.)
Starting Gmin stepping
Gmin = 10
Gmin = 1.07374
Gmin = 0.115292
Gmin = 0.0123794
vernier = 0.5
vernier = 0.25
vernier = 0.125
vernier = 0.0625
Gmin = 0.0118196
vernier = 0.03125
vernier = 0.015625
vernier = 0.0208333
Gmin = 0.0115314
vernier = 0.0277778
Gmin = 0.0108536
vernier = 0.037037
vernier = 0.0493827
Gmin = 0.00983024
vernier = 0.0658435
vernier = 0.0877914
Gmin = 0.0084063
vernier = 0.117055
Gmin = 0.00652871
vernier = 0.156073
vernier = 0.208098
Gmin = 0.00432996
vernier = 0.277464
vernier = 0.369952
Gmin = 0.00227631
vernier = 0.184976
vernier = 0.0924879
vernier = 0.046244
Gmin = 0.00178171
vernier = 0.023122
vernier = 0.011561
vernier = 0.00578049
vernier = 0.00289025
vernier = 0.00144512
vernier = 0.000722562
Gmin = 0.00175123
vernier = 0.000541921
vernier = 0.000406441
Gmin = 0
Gmin stepping failed

Starting source stepping with srcstepmethod=0
Source Step = 3.0303%
Source Step = 19.8864%
Source Step = 21.7803%
Source Step = 23.6742%
Source Step = 25.5682%
Source Step = 27.4621%
Source Step = 29.3561%
vernier = 0.09375
Source Step = 32.197%
Source Step = 35.0379%
Source Step = 37.8788%
Source Step = 40.7197%
Source Step = 43.5606%
vernier = 0.140625
Source Step = 47.6799%
Source Step = 51.9413%
Source Step = 56.2027%
Source Step = 60.464%
Source Step = 64.7254%
vernier = 0.210938
Source Step = 70.6913%
Source Step = 77.0833%
Source Step = 83.4754%
Source Step = 89.8674%
Source Step = 89.9373%
Starting source stepping with srcstepmethod=1
Source Step = 3.0303%
Source Step = 33.3333%
Source Step = 63.6364%
Source Step = 88.6364%
vernier = 0.0625
Source stepping failed

Pseudo Transient succeeded in finding the operating point at 2.15954 s.
Total elapsed time: 27.468 seconds.

Files loaded:
C:\Users\German\Documents\placa_prueba_bq24780s\Simulaciones\modulo_descarga\modulo_carga_descarga_ac_imp.net
C:\Users\German\AppData\Local\LTspice\lib\cmp\standard.dio
C:\Users\German\AppData\Local\LTspice\lib\cmp\standard.bjt
C:\Users\German\Documents\placa_prueba_bq24780s\Simulaciones\modulo_descarga\OPAx188.lib
C:\Users\German\Documents\placa_prueba_bq24780s\Simulaciones\modulo_descarga\lmx24_lm2902.lib

