LTspice 24.1.9 for Windows
Circuit: C:\Users\German\Documents\placa_prueba_bq24780s\Simulaciones\modulo_descarga\modulo_carga_descarga_ac_imp.net
Start Time: Thu Oct 16 18:55:29 2025
solver = Normal
Maximum thread count: 8
tnom = 27
temp = 27
method = trap
Direct Newton iteration failed to find .op point.  (Use ".option noopiter" to skip.)
Starting Gmin stepping
Gmin = 10
Gmin = 1.07374
Gmin = 0.115292
Gmin = 0.0123794
Gmin = 0.00132923
vernier = 0.5
Gmin = 0.000223007
vernier = 0.25
vernier = 0.125
vernier = 0.0625
vernier = 0.03125
Gmin = 0.000195179
vernier = 0.015625
vernier = 0.0078125
Gmin = 0.000191413
vernier = 0.0104167
vernier = 0.0138889
Gmin = 0.000186136
vernier = 0.0185185
vernier = 0.0246913
Gmin = 0.000178076
vernier = 0.0329218
Gmin = 0.000165746
vernier = 0.0438957
vernier = 0.0219478
vernier = 0.0109739
Gmin = 0.000155663
vernier = 0.00548696
vernier = 0.00731595
Gmin = 0.000153614
vernier = 0.00975459
Gmin = 0.000150283
vernier = 0.0130061
vernier = 0.0173415
Gmin = 0.000144856
vernier = 0.023122
vernier = 0.0308293
Gmin = 0.000136612
vernier = 0.0411057
Gmin = 0.000124598
vernier = 0.0548076
vernier = 0.0730768
Gmin = 0.000106807
vernier = 0.0974357
vernier = 0.129914
Gmin = 8.3637e-05
vernier = 0.173219
Gmin = 5.70699e-05
vernier = 0.230959
vernier = 0.115479
vernier = 0.0577396
vernier = 0.0288698
vernier = 0.0144349
Gmin = 5.52691e-05
vernier = 0.0192465
Gmin = 5.29318e-05
vernier = 0.025662
vernier = 0.0342161
Gmin = 4.9233e-05
vernier = 0.0456214
vernier = 0.0608285
Gmin = 4.3873e-05
vernier = 0.0811047
Gmin = 3.66161e-05
vernier = 0.10814
vernier = 0.144186
Gmin = 2.70797e-05
vernier = 0.192248
vernier = 0.25633
Gmin = 1.68118e-05
vernier = 0.341774
Gmin = 8.01804e-06
vernier = 0.455698
vernier = 0.607598
Gmin = 2.38383e-06
vernier = 0.303799
vernier = 0.151899
vernier = 0.0759497
vernier = 0.0379749
vernier = 0.0189874
vernier = 0.00949371
vernier = 0.00474686
vernier = 0.00237343
Gmin = 2.06948e-06
vernier = 0.00118671
vernier = 0.000593357
vernier = 0.000445018
Gmin = 0
Gmin stepping failed

Starting source stepping with srcstepmethod=0
Source Step = 3.0303%
vernier = 0.25
Source Step = 1.08902%
Source Step = 1.5625%
Source Step = 2.03598%
Source Step = 2.50947%
Source Step = 2.98295%
vernier = 0.0234375
Source Step = 3.59848%
Source Step = 4.30871%
Source Step = 5.01894%
Source Step = 5.72917%
Source Step = 6.43939%
vernier = 0.0351562
Source Step = 7.32718%
Source Step = 8.39252%
Source Step = 9.45786%
Source Step = 10.5232%
Source Step = 11.5885%
vernier = 0.0527344
Source Step = 12.867%
Source Step = 14.465%
Source Step = 16.063%
Source Step = 17.661%
Source Step = 19.259%
vernier = 0.0791016
Source Step = 21.0967%
Source Step = 23.4937%
Source Step = 25.8907%
Source Step = 28.2878%
Source Step = 30.6848%
vernier = 0.118652
Source Step = 33.3215%
Source Step = 36.917%
Source Step = 40.5125%
Source Step = 44.1081%
Source Step = 47.7036%
vernier = 0.177979
Source Step = 51.4789%
Source Step = 56.8722%
Source Step = 62.2655%
Source Step = 67.6588%
Source Step = 73.0521%
Source Step = 78.4453%
vernier = 0.266968
Source Step = 86.5353%
Source Step = 89.7776%
Source Step = 89.8092%
Source Step = 89.8408%
Source Step = 89.8724%
Source Step = 89.904%
Source Step = 89.9356%
vernier = 0.00156426
Source Step = 89.9814%
Source Step = 90.0288%
Starting source stepping with srcstepmethod=1
Source Step = 3.0303%
Source Step = 33.3333%
Source Step = 63.6364%
Source Step = 88.6364%
vernier = 0.0625
Source stepping failed

Pseudo Transient succeeded in finding the operating point at 6.52394 s.
Total elapsed time: 35.148 seconds.

Files loaded:
C:\Users\German\Documents\placa_prueba_bq24780s\Simulaciones\modulo_descarga\modulo_carga_descarga_ac_imp.net
C:\Users\German\AppData\Local\LTspice\lib\cmp\standard.dio
C:\Users\German\AppData\Local\LTspice\lib\cmp\standard.bjt
C:\Users\German\Documents\placa_prueba_bq24780s\Simulaciones\modulo_descarga\OPAx188.lib
C:\Users\German\Documents\placa_prueba_bq24780s\Simulaciones\modulo_descarga\lmx24_lm2902.lib

