LTspice 24.1.9 for Windows
Circuit: C:\Users\German\Documents\placa_prueba_bq24780s\Simulaciones\modulo_descarga\modulo_carga_descarga_ac_imp.net
Start Time: Fri Oct 31 20:04:03 2025
solver = Normal
Maximum thread count: 8
tnom = 27
temp = 27
method = trap
Direct Newton iteration failed to find .op point.  (Use ".option noopiter" to skip.)
Starting Gmin stepping
Gmin = 10
Gmin = 1.07374
Gmin = 0.115292
Gmin = 0.0123794
vernier = 0.5
vernier = 0.25
vernier = 0.125
vernier = 0.0625
Gmin = 0.0118196
vernier = 0.03125
vernier = 0.015625
vernier = 0.0208333
Gmin = 0.0115314
vernier = 0.0277778
Gmin = 0.0108536
vernier = 0.037037
vernier = 0.0493827
Gmin = 0.00983024
vernier = 0.0658435
vernier = 0.0877914
Gmin = 0.0084063
vernier = 0.117055
Gmin = 0.00652871
vernier = 0.156073
vernier = 0.208098
Gmin = 0.00432996
vernier = 0.277464
vernier = 0.369952
Gmin = 0.00227631
vernier = 0.184976
vernier = 0.0924879
Gmin = 0.00159402
vernier = 0.046244
vernier = 0.023122
vernier = 0.011561
vernier = 0.00578049
vernier = 0.00289025
Gmin = 0.0016297
vernier = 0.00144512
vernier = 0.000722562
vernier = 0.000541921
vernier = 0.000406441
Gmin = 0.00162977
Gmin = 0
Gmin stepping failed

Starting source stepping with srcstepmethod=0
Source Step = 3.0303%
Source Step = 18.9394%
Source Step = 26.5152%
Source Step = 34.0909%
Source Step = 41.6667%
Source Step = 49.2424%
vernier = 0.375
Source Step = 58.3333%
Source Step = 69.697%
Source Step = 81.0606%
Source Step = 89.0862%
vernier = 0.00585938
Starting source stepping with srcstepmethod=1
Source Step = 3.0303%
Source Step = 33.3333%
Source Step = 63.6364%
Source Step = 88.6364%
vernier = 0.0625
Source stepping failed

Pseudo Transient succeeded in finding the operating point at 547.941 ms.
Total elapsed time: 6.149 seconds.

Files loaded:
C:\Users\German\Documents\placa_prueba_bq24780s\Simulaciones\modulo_descarga\modulo_carga_descarga_ac_imp.net
C:\Users\German\AppData\Local\LTspice\lib\cmp\standard.dio
C:\Users\German\AppData\Local\LTspice\lib\cmp\standard.bjt
C:\Users\German\Documents\placa_prueba_bq24780s\Simulaciones\modulo_descarga\OPAx188.lib
C:\Users\German\Documents\placa_prueba_bq24780s\Simulaciones\modulo_descarga\lmx24_lm2902.lib

