LTspice 24.1.9 for Windows
Circuit: C:\Users\German\Documents\placa_prueba_bq24780s\Simulaciones\modulo_descarga\modulo_carga_descarga_ac_imp_aol.net
Start Time: Tue Oct 28 21:04:19 2025
solver = Normal
Maximum thread count: 12
tnom = 27
temp = 27
method = trap
Direct Newton iteration failed to find .op point.  (Use ".option noopiter" to skip.)
Starting Gmin stepping
Gmin = 10
Gmin = 1.07374
Gmin = 0.115292
Gmin = 0.0123794
Gmin = 0.00132923
Gmin = 0.000142725
vernier = 0.5
vernier = 0.25
vernier = 0.125
Gmin = 0.000101049
vernier = 0.166667
vernier = 0.222222
Gmin = 6.83261e-05
vernier = 0.296296
Gmin = 3.64763e-05
vernier = 0.395061
vernier = 0.526748
Gmin = 1.33158e-05
vernier = 0.263374
vernier = 0.131687
vernier = 0.0658435
Gmin = 1.06848e-05
vernier = 0.0877914
vernier = 0.117055
Gmin = 8.67751e-06
vernier = 0.156073
Gmin = 6.20363e-06
vernier = 0.208098
vernier = 0.277464
Gmin = 3.60154e-06
vernier = 0.369952
vernier = 0.493269
Gmin = 1.54208e-06
vernier = 0.657691
Gmin = 4.02755e-07
vernier = 0.876922
vernier = 1
Gmin = 5.39121e-08
vernier = 0.5
vernier = 0.25
vernier = 0.125
vernier = 0.0625
vernier = 0.03125
vernier = 0.015625
vernier = 0.0078125
vernier = 0.00390625
Gmin = 4.31296e-08
vernier = 0.00195312
vernier = 0.000976562
vernier = 0.000488281
Gmin = 0
Gmin stepping failed

Starting source stepping with srcstepmethod=0
Source Step = 3.0303%
vernier = 0.25
Source Step = 0.804924%
Source Step = 1.27841%
Source Step = 1.75189%
Source Step = 2.22538%
Source Step = 2.69886%
vernier = 0.0234375
Source Step = 3.26705%
Source Step = 3.97727%
Source Step = 4.6875%
Source Step = 5.39773%
Source Step = 6.10795%
vernier = 0.0351562
Source Step = 6.92472%
Source Step = 7.99006%
Source Step = 9.0554%
Source Step = 10.1207%
Source Step = 11.1861%
vernier = 0.0527344
Source Step = 12.358%
Source Step = 13.956%
Source Step = 15.554%
Source Step = 17.152%
Source Step = 18.75%
vernier = 0.0791016
Source Step = 20.4279%
Source Step = 22.8249%
Source Step = 25.2219%
Source Step = 27.619%
Source Step = 30.016%
Source Step = 32.413%
vernier = 0.118652
Source Step = 36.0085%
Source Step = 39.604%
Source Step = 43.1996%
Source Step = 46.7951%
Source Step = 50.3906%
vernier = 0.177979
Source Step = 55.6041%
Source Step = 60.9974%
Source Step = 66.3907%
Source Step = 71.784%
Source Step = 77.1773%
vernier = 0.266968
Source Step = 84.7279%
Source Step = 89.5945%
vernier = 0.00104284
Source Step = 89.6135%
Source Step = 89.6451%
Source Step = 89.6767%
Source Step = 89.7083%
Source Step = 89.7399%
vernier = 0.00156426
Source Step = 89.7809%
Source Step = 89.8283%
Source Step = 89.8757%
Source Step = 89.9231%
Source Step = 89.9705%
vernier = 0.0023464
Source Step = 90.0298%
Starting source stepping with srcstepmethod=1
Source Step = 3.0303%
Source Step = 33.3333%
Source Step = 63.6364%
Source Step = 88.6364%
vernier = 0.0625
Source stepping failed

Pseudo Transient succeeded in finding the operating point at 3.94382 s.
Total elapsed time: 2.897 seconds.

Files loaded:
C:\Users\German\Documents\placa_prueba_bq24780s\Simulaciones\modulo_descarga\modulo_carga_descarga_ac_imp_aol.net
C:\Users\German\AppData\Local\LTspice\lib\cmp\standard.dio
C:\Users\German\AppData\Local\LTspice\lib\cmp\standard.bjt
C:\Users\German\Documents\placa_prueba_bq24780s\Simulaciones\modulo_descarga\OPAx188.lib
C:\Users\German\Documents\placa_prueba_bq24780s\Simulaciones\modulo_descarga\lmx24_lm2902.lib

