LTspice 24.1.9 for Windows
Circuit: C:\Users\German\Documents\placa_prueba_bq24780s\Simulaciones\modulo_descarga\modulo_descarga_sziklai_2.net
Start Time: Wed Sep  3 19:44:37 2025
solver = Normal
Maximum thread count: 8
tnom = 27
temp = 27
method = trap
Direct Newton iteration failed to find .op point.  (Use ".option noopiter" to skip.)
Starting Gmin stepping
Gmin = 10
Gmin = 1.07374
Gmin = 0.115292
Gmin = 0.0123794
Gmin = 0.00132923
Gmin = 0.000142725
vernier = 0.5
vernier = 0.25
vernier = 0.125
Gmin = 8.33655e-05
vernier = 0.0625
vernier = 0.0833333
Gmin = 7.25195e-05
vernier = 0.111111
vernier = 0.148148
Gmin = 5.577e-05
vernier = 0.197531
Gmin = 3.65393e-05
vernier = 0.263374
vernier = 0.351165
Gmin = 1.84514e-05
vernier = 0.46822
vernier = 0.624294
Gmin = 6.38203e-06
vernier = 0.832392
Gmin = 1.20094e-06
vernier = 1
Gmin = 1.33422e-07
vernier = 0.5
vernier = 0.25
vernier = 0.125
vernier = 0.0625
vernier = 0.03125
Gmin = 5.46498e-08
vernier = 0.015625
vernier = 0.0078125
vernier = 0.00390625
vernier = 0.00195312
vernier = 0.000976562
vernier = 0.000488281
Gmin = 0
Gmin stepping failed

Starting source stepping with srcstepmethod=0
Source Step = 3.0303%
Source Step = 33.3333%
Source Step = 63.6364%
Source Step = 88.6364%
vernier = 0.0625
Source Step = 87.8995%
Starting source stepping with srcstepmethod=1
Source Step = 3.0303%
Source Step = 33.3333%
Source Step = 63.6364%
Source Step = 88.6364%
vernier = 0.0625
Source stepping failed

Pseudo Transient succeeded in finding the operating point at 2.31275 s.
Total elapsed time: 1.720 seconds.

Files loaded:
C:\Users\German\Documents\placa_prueba_bq24780s\Simulaciones\modulo_descarga\modulo_descarga_sziklai_2.net
C:\Users\German\AppData\Local\LTspice\lib\cmp\standard.bjt
C:\Users\German\Documents\placa_prueba_bq24780s\Simulaciones\modulo_descarga\lmx58_lm2904.lib
C:\Users\German\Documents\placa_prueba_bq24780s\Simulaciones\modulo_descarga\CSD17308Q3.lib

