LTspice 24.1.9 for Windows
Circuit: C:\Users\German\Documents\placa_prueba_bq24780s\Simulaciones\modulo_descarga\modulo_descarga_sziklai_aol.net
Start Time: Wed Aug 27 21:40:46 2025
solver = Normal
Maximum thread count: 8
tnom = 27
temp = 27
method = trap
Direct Newton iteration failed to find .op point.  (Use ".option noopiter" to skip.)
Starting Gmin stepping
Gmin = 10
Gmin = 1.07374
Gmin = 0.115292
Gmin = 0.0123794
Gmin = 0.00132923
Gmin = 0.000142725
vernier = 0.5
vernier = 0.25
vernier = 0.125
Gmin = 8.33655e-05
vernier = 0.0625
vernier = 0.03125
vernier = 0.015625
Gmin = 8.17574e-05
vernier = 0.0208333
vernier = 0.0277778
Gmin = 7.75521e-05
vernier = 0.037037
Gmin = 7.13764e-05
vernier = 0.0493827
vernier = 0.0658435
Gmin = 6.21183e-05
vernier = 0.0877914
vernier = 0.117055
Gmin = 4.9821e-05
vernier = 0.156073
Gmin = 3.5283e-05
vernier = 0.208098
vernier = 0.277464
Gmin = 1.99024e-05
vernier = 0.369952
vernier = 0.493269
Gmin = 8.11238e-06
vernier = 0.657691
Gmin = 2.04397e-06
vernier = 0.876922
vernier = 1
Gmin = 2.5487e-07
vernier = 0.5
vernier = 0.25
Gmin = 5.34502e-08
vernier = 0.125
vernier = 0.0625
vernier = 0.03125
vernier = 0.015625
vernier = 0.0078125
vernier = 0.00390625
vernier = 0.00195312
vernier = 0.000976562
vernier = 0.000488281
Gmin = 0
Gmin = 0
Gmin stepping failed

Starting source stepping with srcstepmethod=0
Source Step = 3.0303%
Source Step = 33.3333%
Source Step = 63.6364%
Source Step = 88.6364%
vernier = 0.0625
Source Step = 87.8995%
Starting source stepping with srcstepmethod=1
Source Step = 3.0303%
Source Step = 33.3333%
Source Step = 63.6364%
Source Step = 88.6364%
vernier = 0.0625
Source stepping failed

Pseudo Transient succeeded in finding the operating point at 2.31262 s.
Total elapsed time: 1.486 seconds.

Files loaded:
C:\Users\German\Documents\placa_prueba_bq24780s\Simulaciones\modulo_descarga\modulo_descarga_sziklai_aol.net
C:\Users\German\AppData\Local\LTspice\lib\cmp\standard.bjt
C:\Users\German\Documents\placa_prueba_bq24780s\Simulaciones\modulo_descarga\lmx58_lm2904.lib
C:\Users\German\Documents\placa_prueba_bq24780s\Simulaciones\modulo_descarga\CSD17308Q3.lib

