LTspice 24.1.9 for Windows
Circuit: C:\Users\German\Documents\placa_prueba_bq24780s\Simulaciones\modulo_descarga\modulo_descarga_pwm.net
Start Time: Sat Aug 23 20:01:14 2025
solver = Normal
Maximum thread count: 12
tnom = 27
temp = 27
method = trap
Direct Newton iteration failed to find .op point.  (Use ".option noopiter" to skip.)
Starting Gmin stepping
Gmin = 10
Gmin = 1.07374
Gmin = 0.115292
Gmin = 0.0123794
Gmin = 0.00132923
Gmin = 0.000142725
vernier = 0.5
vernier = 0.25
vernier = 0.125
Gmin = 8.33655e-05
vernier = 0.0625
vernier = 0.03125
vernier = 0.015625
vernier = 0.0078125
Gmin = 8.4972e-05
vernier = 0.0104167
vernier = 0.0138889
Gmin = 8.28803e-05
vernier = 0.0185185
Gmin = 7.95966e-05
vernier = 0.0246913
vernier = 0.0329218
Gmin = 7.4503e-05
vernier = 0.0438957
vernier = 0.0585276
Gmin = 6.71036e-05
vernier = 0.0780367
Gmin = 5.66562e-05
vernier = 0.104049
vernier = 0.138732
Gmin = 4.30051e-05
vernier = 0.184976
vernier = 0.246634
Gmin = 2.78814e-05
vernier = 0.328846
Gmin = 1.39261e-05
vernier = 0.438461
vernier = 0.584614
Gmin = 4.57883e-06
vernier = 0.779486
vernier = 1
Gmin = 8.35968e-07
Gmin = 8.97614e-08
vernier = 0.5
vernier = 0.25
vernier = 0.125
vernier = 0.0625
vernier = 0.03125
vernier = 0.015625
vernier = 0.0078125
Gmin = 5.74473e-08
vernier = 0.00390625
vernier = 0.00195312
vernier = 0.000976562
vernier = 0.000488281
Gmin = 0
Gmin stepping failed

Starting source stepping with srcstepmethod=0
Source Step = 3.0303%
Source Step = 33.3333%
Source Step = 63.6364%
Source Step = 88.6364%
vernier = 0.0625
Source Step = 87.8995%
Source Step = 87.9291%
Source Step = 87.9587%
Source Step = 87.9883%
Source Step = 88.0179%
Source Step = 88.0475%
vernier = 0.00146484
Source Step = 88.0904%
Source Step = 88.1348%
Source Step = 88.1792%
Source Step = 88.2235%
Source Step = 88.2679%
vernier = 0.00219727
Source Step = 88.3301%
Source Step = 88.3967%
Source Step = 88.4632%
Source Step = 88.5298%
Source Step = 88.5964%
vernier = 0.0032959
Source Step = 88.6863%
Source Step = 88.7862%
Source Step = 88.8861%
Source Step = 88.9859%
Source Step = 89.0858%
vernier = 0.00494385
Source Step = 89.2156%
Source Step = 89.3655%
Source Step = 89.5153%
Source Step = 89.6651%
Source Step = 89.8149%
vernier = 0.00741577
Source Step = 90.0022%
Source Step = 90.1876%
Source Step = 90.2437%
Source Step = 90.2999%
Source Step = 90.3561%
Source Step = 90.4123%
Source Step = 90.4685%
Source Step = 90.5246%
Source Step = 90.5808%
Source Step = 90.637%
Source Step = 90.6932%
Source Step = 90.7494%
Source Step = 90.8055%
Source Step = 90.8617%
Source Step = 90.9179%
Source Step = 90.9741%
Source Step = 91.0303%
Source Step = 91.0864%
Source Step = 91.1426%
Source Step = 91.1988%
Source Step = 91.255%
Source Step = 91.3112%
Source Step = 91.3673%
Source Step = 91.4235%
Source Step = 91.4797%
Source Step = 91.5359%
Source Step = 91.5921%
Source Step = 91.6482%
Source Step = 91.7044%
Source Step = 91.7606%
Source Step = 91.8168%
Source Step = 91.873%
Source Step = 91.9291%
Source Step = 91.9853%
Source Step = 92.0415%
Source Step = 92.0977%
Source Step = 92.1539%
Source Step = 92.21%
Source Step = 92.2662%
Source Step = 92.3224%
Source Step = 92.3786%
Source Step = 92.4348%
Source Step = 92.4909%
Source Step = 92.5471%
Source Step = 92.6033%
Source Step = 92.6595%
Source Step = 92.7157%
Source Step = 92.7718%
Source Step = 92.828%
Source Step = 92.8842%
Source Step = 92.9404%
Source Step = 92.9966%
Source Step = 93.0527%
Source Step = 93.1089%
Source Step = 93.1651%
Source Step = 93.2213%
Source Step = 93.2775%
Source Step = 93.3336%
Source Step = 93.3898%
Source Step = 93.446%
Source Step = 93.5022%
Source Step = 93.5584%
Source Step = 93.6145%
Source Step = 93.6707%
Source Step = 93.7269%
Source Step = 93.7831%
Source Step = 93.8393%
Source Step = 93.8954%
Source Step = 93.9516%
Source Step = 94.0078%
Source Step = 94.064%
Source Step = 94.1202%
Source Step = 94.1763%
Source Step = 94.2325%
Source Step = 94.2887%
Source Step = 94.3449%
Source Step = 94.4011%
Source Step = 94.4572%
Source Step = 94.5134%
Source Step = 94.5696%
Source Step = 94.6258%
Source Step = 94.682%
Source Step = 94.7381%
Source Step = 94.7943%
Source Step = 94.8505%
Source Step = 94.9067%
Source Step = 94.9629%
Source Step = 95.019%
Source Step = 95.0752%
Source Step = 95.1314%
Source Step = 95.1876%
Source Step = 95.2438%
Source Step = 95.2999%
Source Step = 95.3561%
Source Step = 95.4123%
Source Step = 95.4685%
Source Step = 95.5247%
Source Step = 95.5808%
Source Step = 95.637%
Source Step = 95.6932%
Source Step = 95.7494%
Source Step = 95.8056%
Source Step = 95.8617%
Source Step = 95.9179%
Source Step = 95.9741%
Source Step = 96.0303%
Source Step = 96.0865%
Source Step = 96.1426%
Source Step = 96.1988%
Source Step = 96.255%
Source Step = 96.3112%
Source Step = 96.3674%
Source Step = 96.4235%
Source Step = 96.4797%
Source Step = 96.5359%
Source Step = 96.5921%
Source Step = 96.6483%
Source Step = 96.7044%
Source Step = 96.7606%
Source Step = 96.8168%
Source Step = 96.873%
Source Step = 96.9292%
Source Step = 96.9853%
Source Step = 97.0415%
Source Step = 97.0977%
Source Step = 97.1539%
Source Step = 97.2101%
Source Step = 97.2662%
Source Step = 97.3224%
Source Step = 97.3786%
Source Step = 97.4348%
Source Step = 97.491%
Source Step = 97.5471%
Source Step = 97.6033%
Source Step = 97.6595%
Source Step = 97.7157%
Source Step = 97.7719%
Source Step = 97.8281%
Source Step = 97.8842%
Source Step = 97.9404%
Source Step = 97.9966%
Source Step = 98.0528%
Source Step = 98.109%
Source Step = 98.1651%
Source Step = 98.2213%
Source Step = 98.2775%
Source Step = 98.3337%
Source Step = 98.3899%
Source Step = 98.446%
Source Step = 98.5022%
Source Step = 98.5584%
Source Step = 98.6146%
Source Step = 98.6708%
Source Step = 98.7269%
Source Step = 98.7831%
Source Step = 98.8393%
Source Step = 98.8955%
Source Step = 98.9517%
Source Step = 99.0078%
Source Step = 99.064%
Source Step = 99.1202%
Source Step = 99.1764%
Source Step = 99.2326%
Source Step = 99.2887%
Source Step = 99.3449%
Source Step = 99.4011%
Source Step = 99.4573%
Source Step = 99.5135%
Source Step = 99.5696%
Source Step = 99.6258%
Source Step = 99.682%
Source Step = 99.7382%
Source Step = 99.7944%
Source Step = 99.8505%
Source Step = 99.9067%
Source Step = 99.9629%
Source Step = 100%
Source Step = 100%
Source Step = 100%
Source Step = 100%
Source Step = 100%
Source Step = 100%
Source Step = 100%
Source Step = 100%
Source Step = 100%
Source Step = 100%
Source Step = 100%
Source Step = 100%
Source Step = 100%
Source Step = 100%
Source Step = 100%
Source Step = 100%
Source Step = 100%
Source Step = 100%
Source Step = 100%
Source Step = 100%
Source Step = 100%
Source Step = 100%
Source Step = 100%
Source Step = 100%
Source Step = 100%
Source Step = 100%
Source Step = 100%
Source Step = 100%
Source Step = 100%
Source Step = 100%
Source Step = 100%
Source Step = 100%
Source Step = 100%
Source Step = 100%
Source Step = 100%
Source Step = 100%
Source Step = 100%
Source Step = 100%
Source Step = 100%
Source Step = 100%
Source Step = 100%
Source Step = 100%
Source Step = 100%
Source Step = 100%
Source Step = 100%
Source Step = 100%
Source Step = 100%
Source Step = 100%
Source Step = 100%
Source Step = 100%
Source Step = 100%
Source Step = 100%
Source Step = 100%
Source Step = 100%
Source Step = 100%
Source stepping aborted.
Starting source stepping with srcstepmethod=1
Source Step = 3.0303%
Source Step = 33.3333%
Source Step = 63.6364%
Source Step = 88.6364%
vernier = 0.0625
Source stepping failed

Pseudo Transient failed in finding the operating point at 70.6481 µs.
Trouble finding operating point....skipping operating point for Transient analysis.
Changing Tseed to 9.76562e-09
Changing Tseed to 9.76563e-11
Changing Tseed to 9.76562e-08
Changing Tseed to 9.76562e-12
Changing Tseed to 9.76563e-07
Changing Tseed to 9.76562e-13
Changing Tseed to 9.76562e-06
Changing Tseed to 9.76563e-14
Changing Tseed to 9.76563e-05
Changing Tseed to 9.76562e-15
Changing Tseed to 0.000976562
Changing Tseed to 9.76562e-16

Convergence Failure:  Time step too small; initial timepoint: trouble with node "u1:xi_nn:7"

Simulation Failed: Iteration limit reached

Total elapsed time: 15.089 seconds.

Files loaded:
C:\Users\German\Documents\placa_prueba_bq24780s\Simulaciones\modulo_descarga\modulo_descarga_pwm.net
C:\Users\German\AppData\Local\LTspice\lib\cmp\standard.bjt
C:\Users\German\Documents\placa_prueba_bq24780s\Simulaciones\modulo_descarga\lmx58_lm2904.lib
C:\Users\German\Documents\placa_prueba_bq24780s\Simulaciones\modulo_descarga\CSD17308Q3.lib

