LTspice 24.1.9 for Windows
Circuit: C:\Users\German\Documents\placa_prueba_bq24780s\Simulaciones\modulo_descarga\modulo_carga_descarga_ac_imp.net
Start Time: Tue Oct 21 21:17:07 2025
solver = Normal
Maximum thread count: 12
tnom = 27
temp = 27
method = trap
Direct Newton iteration failed to find .op point.  (Use ".option noopiter" to skip.)
Starting Gmin stepping
Gmin = 10
Gmin = 1.07374
Gmin = 0.115292
Gmin = 0.0123794
Gmin = 0.00132923
Gmin = 0.000142725
vernier = 0.5
vernier = 0.25
vernier = 0.125
vernier = 0.0625
Gmin = 0.000162785
vernier = 0.03125
vernier = 0.015625
vernier = 0.0078125
Gmin = 0.000162455
vernier = 0.0104167
vernier = 0.0138889
Gmin = 0.000158216
vernier = 0.0185185
Gmin = 0.000151772
vernier = 0.0246913
vernier = 0.0329218
Gmin = 0.000141552
vernier = 0.0438957
vernier = 0.0219478
vernier = 0.0109739
Gmin = 0.000136612
vernier = 0.0146319
vernier = 0.0195092
Gmin = 0.000131634
vernier = 0.0260122
Gmin = 0.000124172
vernier = 0.034683
vernier = 0.046244
Gmin = 0.000112606
vernier = 0.0616586
vernier = 0.0822114
Gmin = 9.63928e-05
vernier = 0.109615
Gmin = 7.55537e-05
vernier = 0.146154
vernier = 0.194871
Gmin = 5.03627e-05
vernier = 0.259828
vernier = 0.346438
Gmin = 2.65859e-05
vernier = 0.461917
Gmin = 9.89894e-06
vernier = 0.615889
vernier = 0.821185
Gmin = 1.98628e-06
vernier = 1
vernier = 0.5
vernier = 0.25
vernier = 0.125
vernier = 0.0625
vernier = 0.03125
vernier = 0.015625
Gmin = 1.09381e-06
vernier = 0.0078125
vernier = 0.00390625
vernier = 0.00195312
vernier = 0.000976562
vernier = 0.000488281
Gmin = 0
Gmin stepping failed

Starting source stepping with srcstepmethod=0
Source Step = 3.0303%
vernier = 0.25
Source Step = 0.772372%
Source Step = 0.801965%
Source Step = 0.831558%
Source Step = 0.861151%
Source Step = 0.890743%
vernier = 0.00146484
Source Step = 0.926255%
Source Step = 0.970644%
Source Step = 1.01503%
Source Step = 1.05942%
Source Step = 1.10381%
vernier = 0.00219727
Source Step = 1.15486%
Source Step = 1.22144%
Source Step = 1.28803%
Source Step = 1.35461%
Source Step = 1.42119%
vernier = 0.0032959
Source Step = 1.49444%
Source Step = 1.59431%
Source Step = 1.69419%
Source Step = 1.79406%
Source Step = 1.89394%
vernier = 0.00494385
Source Step = 1.99881%
Source Step = 2.14862%
Source Step = 2.29844%
Source Step = 2.44825%
Source Step = 2.59806%
Source Step = 2.74788%
vernier = 0.00741577
Source Step = 2.9726%
Source Step = 3.19732%
Source Step = 3.42204%
Source Step = 3.64676%
Source Step = 3.87148%
vernier = 0.0111237
Source Step = 4.19732%
Source Step = 4.5344%
Source Step = 4.87148%
Source Step = 5.20856%
Source Step = 5.54565%
vernier = 0.0166855
Source Step = 6.01756%
Source Step = 6.52318%
Source Step = 7.0288%
Source Step = 7.53442%
Source Step = 8.04004%
vernier = 0.0250282
Source Step = 8.72263%
Source Step = 9.48106%
Source Step = 10.2395%
Source Step = 10.9979%
Source Step = 11.7564%
vernier = 0.0375423
Source Step = 12.7423%
Source Step = 13.88%
Source Step = 15.0176%
Source Step = 16.1553%
Source Step = 17.2929%
vernier = 0.0563135
Source Step = 18.715%
Source Step = 20.4214%
Source Step = 22.1279%
Source Step = 23.8344%
Source Step = 25.5408%
vernier = 0.0844703
Source Step = 27.5886%
Source Step = 30.1483%
Source Step = 32.708%
Source Step = 35.2677%
Source Step = 37.8274%
vernier = 0.126705
Source Step = 40.7711%
Source Step = 44.6106%
Source Step = 48.4502%
Source Step = 52.2898%
Source Step = 56.1293%
vernier = 0.190058
Source Step = 60.3528%
Source Step = 66.1122%
Source Step = 71.8715%
Source Step = 77.6308%
Source Step = 83.3902%
vernier = 0.285087
Source Step = 89.4375%
Source Step = 89.4577%
Starting source stepping with srcstepmethod=1
Source Step = 3.0303%
Source Step = 33.3333%
Source Step = 63.6364%
Source Step = 88.6364%
vernier = 0.0625
Source stepping failed

Pseudo Transient succeeded in finding the operating point at 3.76795 s.
Total elapsed time: 3.729 seconds.

Files loaded:
C:\Users\German\Documents\placa_prueba_bq24780s\Simulaciones\modulo_descarga\modulo_carga_descarga_ac_imp.net
C:\Users\German\AppData\Local\LTspice\lib\cmp\standard.dio
C:\Users\German\AppData\Local\LTspice\lib\cmp\standard.bjt
C:\Users\German\AppData\Local\LTspice\lib\cmp\standard.mos
C:\Users\German\Documents\placa_prueba_bq24780s\Simulaciones\modulo_descarga\OPAx188.lib
C:\Users\German\Documents\placa_prueba_bq24780s\Simulaciones\modulo_descarga\lmx24_lm2902.lib

