LTspice 24.1.9 for Windows
Circuit: C:\Users\German\Documents\placa_prueba_bq24780s\Simulaciones\modulo_descarga\modulo_carga_descarga_ac_imp.net
Start Time: Fri Oct  3 20:58:29 2025
solver = Normal
Maximum thread count: 8
tnom = 27
temp = 27
method = trap
Direct Newton iteration failed to find .op point.  (Use ".option noopiter" to skip.)
Starting Gmin stepping
Gmin = 10
Gmin = 1.07374
Gmin = 0.115292
Gmin = 0.0123794
vernier = 0.5
vernier = 0.25
Gmin = 0.00449161
vernier = 0.125
vernier = 0.166667
Gmin = 0.00347533
vernier = 0.222222
vernier = 0.296296
Gmin = 0.00200717
vernier = 0.395061
Gmin = 0.000857071
vernier = 0.526748
vernier = 0.702331
Gmin = 0.000213622
vernier = 0.936441
vernier = 0.46822
vernier = 0.23411
vernier = 0.117055
vernier = 0.0585276
vernier = 0.0292638
Gmin = 0.000101492
vernier = 0.0146319
vernier = 0.00731595
vernier = 0.00365797
vernier = 0.00182899
vernier = 0.000914493
vernier = 0.000457247
Gmin = 0
Gmin stepping failed

Starting source stepping with srcstepmethod=0
Source Step = 3.0303%
vernier = 0.25
Source Step = 0.0621449%
Source Step = 0.0917377%
Source Step = 0.12133%
Source Step = 0.150923%
Source Step = 0.180516%
vernier = 0.00146484
Source Step = 0.216027%
Source Step = 0.260417%
Source Step = 0.304806%
Source Step = 0.349195%
Source Step = 0.393584%
vernier = 0.00219727
Source Step = 0.444632%
Source Step = 0.511216%
Source Step = 0.577799%
Source Step = 0.644383%
Source Step = 0.710967%
vernier = 0.0032959
Source Step = 0.784209%
Source Step = 0.884085%
Source Step = 0.983961%
Source Step = 1.08384%
Source Step = 1.18371%
vernier = 0.00494385
Source Step = 1.28858%
Source Step = 1.4384%
Source Step = 1.58821%
Source Step = 1.73802%
Source Step = 1.88784%
Source Step = 2.03765%
vernier = 0.00741577
Source Step = 2.26237%
Source Step = 2.48709%
Source Step = 2.71181%
Source Step = 2.93653%
Source Step = 3.16125%
vernier = 0.0111237
Source Step = 3.4871%
Source Step = 3.82418%
Source Step = 4.16126%
Source Step = 4.49834%
Source Step = 4.83542%
vernier = 0.0166855
Source Step = 5.30733%
Source Step = 5.81295%
Source Step = 6.31857%
Source Step = 6.82419%
Source Step = 7.32981%
vernier = 0.0250282
Source Step = 8.0124%
Source Step = 8.77083%
Source Step = 9.52926%
Source Step = 10.2877%
Source Step = 11.0461%
vernier = 0.0375423
Source Step = 12.0321%
Source Step = 13.1697%
Source Step = 14.3074%
Source Step = 15.445%
Source Step = 16.5827%
vernier = 0.0563135
Source Step = 18.0047%
Source Step = 19.7112%
Source Step = 21.4177%
Source Step = 23.1241%
Source Step = 24.8306%
vernier = 0.0844703
Source Step = 26.8784%
Source Step = 29.4381%
Source Step = 31.9978%
Source Step = 34.5575%
Source Step = 37.1172%
vernier = 0.126705
Source Step = 40.0609%
Source Step = 43.9004%
Source Step = 47.74%
Source Step = 51.5795%
Source Step = 55.4191%
vernier = 0.190058
Source Step = 58.6347%
Source Step = 59.0667%
Source Step = 59.4266%
Source Step = 59.7866%
Source Step = 60.1465%
Source Step = 60.5065%
vernier = 0.0178179
Source Step = 60.9924%
Source Step = 61.5324%
Source Step = 62.0723%
Source Step = 62.6123%
Source Step = 63.1522%
vernier = 0.0267269
Source Step = 63.8541%
Source Step = 64.664%
Source Step = 65.4739%
Source Step = 66.2838%
Source Step = 67.0937%
vernier = 0.0400904
Source Step = 68.1061%
Source Step = 69.321%
Source Step = 70.5358%
Source Step = 71.7507%
Source Step = 72.9656%
vernier = 0.0601356
Source Step = 74.4234%
Source Step = 76.2457%
Source Step = 78.068%
Source Step = 79.8903%
Source Step = 81.7126%
vernier = 0.0902034
Source Step = 83.8082%
Source Step = 85.1835%
Starting source stepping with srcstepmethod=1
Source Step = 3.0303%
Source Step = 33.3333%
Source Step = 63.6364%
Source Step = 93.9394%
vernier = 0.25
Source stepping failed

Pseudo Transient succeeded in finding the operating point at 3.95005 s.
Warning: Simulation tolerance relaxed to achieve convergence from 3.1875271461653232e-03 to 3.1875271461653332e-03 seconds.
Warning: Simulation tolerance relaxed to achieve convergence from 3.1875271461658020e-03 to 3.1875271461658120e-03 seconds.
Warning: Simulation tolerance relaxed to achieve convergence from 3.1875271461679401e-03 to 3.1875271461679500e-03 seconds.
Warning: Simulation tolerance relaxed to achieve convergence from 3.1875271461686491e-03 to 3.1875271461686591e-03 seconds.
Warning: Simulation tolerance relaxed to achieve convergence from 3.1875271461703969e-03 to 3.1875271461704068e-03 seconds.
Warning: Simulation tolerance relaxed to achieve convergence from 3.1875271461705964e-03 to 3.1875271461706063e-03 seconds.
Warning: Simulation tolerance relaxed to achieve convergence from 3.1875271461706163e-03 to 3.1875271461706263e-03 seconds.
Warning: Simulation tolerance relaxed to achieve convergence from 3.1875271461708756e-03 to 3.1875271461708856e-03 seconds.
Warning: Simulation tolerance relaxed to achieve convergence from 3.1875271461710253e-03 to 3.1875271461710352e-03 seconds.
Warning: Simulation tolerance relaxed to achieve convergence from 3.1875271461714143e-03 to 3.1875271461714243e-03 seconds.
Warning: Simulation tolerance relaxed to achieve convergence from 3.1875271461716736e-03 to 3.1875271461716836e-03 seconds.
Warning: Simulation tolerance relaxed to achieve convergence from 3.1875271461717434e-03 to 3.1875271461717534e-03 seconds.
Warning: Simulation tolerance relaxed to achieve convergence from 3.1875271461718931e-03 to 3.1875271461719030e-03 seconds.
Warning: Simulation tolerance relaxed to achieve convergence from 3.1875271461721325e-03 to 3.1875271461721424e-03 seconds.
Warning: Simulation tolerance relaxed to achieve convergence from 3.1875271461729603e-03 to 3.1875271461729703e-03 seconds.
Warning: Simulation tolerance relaxed to achieve convergence from 3.1875271461731598e-03 to 3.1875271461731698e-03 seconds.
Warning: Simulation tolerance relaxed to achieve convergence from 3.1875271461731698e-03 to 3.1875271461731798e-03 seconds.
Warning: Simulation tolerance relaxed to achieve convergence from 3.1875271461732097e-03 to 3.1875271461732197e-03 seconds.
Warning: Simulation tolerance relaxed to achieve convergence from 3.1875271461738481e-03 to 3.1875271461738581e-03 seconds.
Warning: Simulation tolerance relaxed to achieve convergence from 3.1875271461738680e-03 to 3.1875271461738780e-03 seconds.
Warning: Simulation tolerance relaxed to achieve convergence from 3.1875271461744665e-03 to 3.1875271461744765e-03 seconds.
Warning: Simulation tolerance relaxed to achieve convergence from 3.1875271461745264e-03 to 3.1875271461745363e-03 seconds.
Warning: Simulation tolerance relaxed to achieve convergence from 3.1875271461745563e-03 to 3.1875271461745663e-03 seconds.
Warning: Simulation tolerance relaxed to achieve convergence from 3.1875271461754041e-03 to 3.1875271461754141e-03 seconds.
Warning: Simulation tolerance relaxed to achieve convergence from 3.1875271461768205e-03 to 3.1875271461768305e-03 seconds.
Warning: Simulation tolerance relaxed to achieve convergence from 3.1875271461775986e-03 to 3.1875271461776085e-03 seconds.
Warning: Simulation tolerance relaxed to achieve convergence from 3.1875271461776983e-03 to 3.1875271461777083e-03 seconds.
Warning: Simulation tolerance relaxed to achieve convergence from 3.1875271461783267e-03 to 3.1875271461783367e-03 seconds.
Warning: Simulation tolerance relaxed to achieve convergence from 3.1875271461792244e-03 to 3.1875271461792344e-03 seconds.
Warning: Simulation tolerance relaxed to achieve convergence from 3.1875271461793242e-03 to 3.1875271461793342e-03 seconds.
Warning: Simulation tolerance relaxed to achieve convergence from 3.1875271461793541e-03 to 3.1875271461793641e-03 seconds.
Warning: Simulation tolerance relaxed to achieve convergence from 3.1875271461798628e-03 to 3.1875271461798728e-03 seconds.
Warning: Simulation tolerance relaxed to achieve convergence from 3.1875271461801022e-03 to 3.1875271461801122e-03 seconds.
Warning: Simulation tolerance relaxed to achieve convergence from 3.1875271461807007e-03 to 3.1875271461807107e-03 seconds.
Warning: Simulation tolerance relaxed to achieve convergence from 3.1875271461808703e-03 to 3.1875271461808802e-03 seconds.
Warning: Simulation tolerance relaxed to achieve convergence from 3.1875271461810298e-03 to 3.1875271461810398e-03 seconds.
Warning: Simulation tolerance relaxed to achieve convergence from 3.1875271461810398e-03 to 3.1875271461810498e-03 seconds.
Warning: Simulation tolerance relaxed to achieve convergence from 3.1875271461812293e-03 to 3.1875271461812393e-03 seconds.
Warning: Simulation tolerance relaxed to achieve convergence from 3.1875271461818278e-03 to 3.1875271461818378e-03 seconds.
Warning: Simulation tolerance relaxed to achieve convergence from 3.1875271461823964e-03 to 3.1875271461824064e-03 seconds.
Warning: Simulation tolerance relaxed to achieve convergence from 3.1875271461825659e-03 to 3.1875271461825759e-03 seconds.
Warning: Simulation tolerance relaxed to achieve convergence from 3.1875271461825859e-03 to 3.1875271461825959e-03 seconds.
Warning: Simulation tolerance relaxed to achieve convergence from 3.1875271461826158e-03 to 3.1875271461826258e-03 seconds.
Warning: Simulation tolerance relaxed to achieve convergence from 3.1875271461826258e-03 to 3.1875271461826358e-03 seconds.
Warning: Simulation tolerance relaxed to achieve convergence from 3.1875271461826557e-03 to 3.1875271461826657e-03 seconds.
Warning: Simulation tolerance relaxed to achieve convergence from 3.1875271461826757e-03 to 3.1875271461826856e-03 seconds.
Warning: Simulation tolerance relaxed to achieve convergence from 3.1875271461837829e-03 to 3.1875271461837928e-03 seconds.
Warning: Simulation tolerance relaxed to achieve convergence from 3.1875271461838128e-03 to 3.1875271461838228e-03 seconds.
Warning: Simulation tolerance relaxed to achieve convergence from 3.1875271461838427e-03 to 3.1875271461838527e-03 seconds.
Warning: Simulation tolerance relaxed to achieve convergence from 3.1875271461838726e-03 to 3.1875271461838826e-03 seconds.
Warning: Simulation tolerance relaxed to achieve convergence from 3.1875271461840422e-03 to 3.1875271461840522e-03 seconds.
Warning: Simulation tolerance relaxed to achieve convergence from 3.1875271461844611e-03 to 3.1875271461844711e-03 seconds.
Warning: Simulation tolerance relaxed to achieve convergence from 3.1875271461845709e-03 to 3.1875271461845808e-03 seconds.
Warning: Simulation tolerance relaxed to achieve convergence from 3.1875271461845908e-03 to 3.1875271461846008e-03 seconds.
Warning: Simulation tolerance relaxed to achieve convergence from 3.1875271461846307e-03 to 3.1875271461846407e-03 seconds.
Warning: Simulation tolerance relaxed to achieve convergence from 3.1875271461846806e-03 to 3.1875271461846905e-03 seconds.
Warning: Simulation tolerance relaxed to achieve convergence from 3.1875271461847005e-03 to 3.1875271461847105e-03 seconds.
Warning: Simulation tolerance relaxed to achieve convergence from 3.1875271461849998e-03 to 3.1875271461850097e-03 seconds.
Warning: Simulation tolerance relaxed to achieve convergence from 3.1875271461850197e-03 to 3.1875271461850297e-03 seconds.
Warning: Simulation tolerance relaxed to achieve convergence from 3.1875271461850297e-03 to 3.1875271461850397e-03 seconds.
Warning: Simulation tolerance relaxed to achieve convergence from 3.1875271461850397e-03 to 3.1875271461850496e-03 seconds.
Warning: Simulation tolerance relaxed to achieve convergence from 3.1875271461853688e-03 to 3.1875271461853788e-03 seconds.
Warning: Simulation tolerance relaxed to achieve convergence from 3.1875271461856581e-03 to 3.1875271461856681e-03 seconds.
Warning: Simulation tolerance relaxed to achieve convergence from 3.1875271461859075e-03 to 3.1875271461859174e-03 seconds.
Warning: Simulation tolerance relaxed to achieve convergence from 3.1875271461860770e-03 to 3.1875271461860870e-03 seconds.
Warning: Simulation tolerance relaxed to achieve convergence from 3.1875271461860870e-03 to 3.1875271461860970e-03 seconds.
Warning: Simulation tolerance relaxed to achieve convergence from 3.1875271461861070e-03 to 3.1875271461861169e-03 seconds.
Warning: Simulation tolerance relaxed to achieve convergence from 3.1875271461861469e-03 to 3.1875271461861568e-03 seconds.
Warning: Simulation tolerance relaxed to achieve convergence from 3.1875271461862466e-03 to 3.1875271461862566e-03 seconds.
Warning: Simulation tolerance relaxed to achieve convergence from 3.1875271461862765e-03 to 3.1875271461862865e-03 seconds.
Warning: Simulation tolerance relaxed to achieve convergence from 3.1875271461866855e-03 to 3.1875271461866955e-03 seconds.
Warning: Simulation tolerance relaxed to achieve convergence from 3.1875271461868351e-03 to 3.1875271461868451e-03 seconds.
Warning: Simulation tolerance relaxed to achieve convergence from 3.1875271461869049e-03 to 3.1875271461869149e-03 seconds.
Warning: Simulation tolerance relaxed to achieve convergence from 3.1875271461869249e-03 to 3.1875271461869348e-03 seconds.
Warning: Simulation tolerance relaxed to achieve convergence from 3.1875271461869348e-03 to 3.1875271461869448e-03 seconds.
Warning: Simulation tolerance relaxed to achieve convergence from 3.1875271461869448e-03 to 3.1875271461869548e-03 seconds.
Warning: Simulation tolerance relaxed to achieve convergence from 3.1875271461871643e-03 to 3.1875271461871742e-03 seconds.
Warning: Simulation tolerance relaxed to achieve convergence from 3.1875271461871742e-03 to 3.1875271461871842e-03 seconds.
Warning: Simulation tolerance relaxed to achieve convergence from 3.1875271461873638e-03 to 3.1875271461873737e-03 seconds.
Warning: Simulation tolerance relaxed to achieve convergence from 3.1875271461877029e-03 to 3.1875271461877129e-03 seconds.
Warning: Simulation tolerance relaxed to achieve convergence from 3.1875271461877129e-03 to 3.1875271461877228e-03 seconds.
Warning: Simulation tolerance relaxed to achieve convergence from 3.1875271461879323e-03 to 3.1875271461879423e-03 seconds.
Warning: Simulation tolerance relaxed to achieve convergence from 3.1875271461879622e-03 to 3.1875271461879722e-03 seconds.
Warning: Simulation tolerance relaxed to achieve convergence from 3.1875271461879722e-03 to 3.1875271461879822e-03 seconds.
Warning: Simulation tolerance relaxed to achieve convergence from 3.1875271461879822e-03 to 3.1875271461879922e-03 seconds.
Warning: Simulation tolerance relaxed to achieve convergence from 3.1875271461880520e-03 to 3.1875271461880620e-03 seconds.
Warning: Simulation tolerance relaxed to achieve convergence from 3.1875271461880819e-03 to 3.1875271461880919e-03 seconds.
Warning: Simulation tolerance relaxed to achieve convergence from 3.1875271461880919e-03 to 3.1875271461881019e-03 seconds.
Warning: Simulation tolerance relaxed to achieve convergence from 3.1875271461881218e-03 to 3.1875271461881318e-03 seconds.
Warning: Simulation tolerance relaxed to achieve convergence from 3.1875271461881418e-03 to 3.1875271461881518e-03 seconds.
Warning: Simulation tolerance relaxed to achieve convergence from 3.1875271461882116e-03 to 3.1875271461882216e-03 seconds.
Warning: Simulation tolerance relaxed to achieve convergence from 3.1875271461882515e-03 to 3.1875271461882615e-03 seconds.
Warning: Simulation tolerance relaxed to achieve convergence from 3.1875271461884610e-03 to 3.1875271461884709e-03 seconds.
Warning: Simulation tolerance relaxed to achieve convergence from 3.1875271461884709e-03 to 3.1875271461884809e-03 seconds.
Warning: Simulation tolerance relaxed to achieve convergence from 3.1875271461884809e-03 to 3.1875271461884909e-03 seconds.
Warning: Simulation tolerance relaxed to achieve convergence from 3.1875271461885707e-03 to 3.1875271461885807e-03 seconds.
Warning: Simulation tolerance relaxed to achieve convergence from 3.1875271461885807e-03 to 3.1875271461885906e-03 seconds.
Warning: Simulation tolerance relaxed to achieve convergence from 3.1875271461885906e-03 to 3.1875271461886006e-03 seconds.
Warning: Simulation tolerance relaxed to achieve convergence from 3.1875271461886006e-03 to 3.1875271461886106e-03 seconds.
Warning: Simulation tolerance relaxed to achieve convergence from 3.1875271461887502e-03 to 3.1875271461887602e-03 seconds.
Warning: Simulation tolerance relaxed to achieve convergence from 3.1875271461887702e-03 to 3.1875271461887802e-03 seconds.
Warning: Simulation tolerance relaxed to achieve convergence from 3.1875271461889497e-03 to 3.1875271461889597e-03 seconds.
Warning: Simulation tolerance relaxed to achieve convergence from 3.1875271461889597e-03 to 3.1875271461889697e-03 seconds.
Warning: Simulation tolerance relaxed to achieve convergence from 3.1875271461891293e-03 to 3.1875271461891392e-03 seconds.
Warning: Simulation tolerance relaxed to achieve convergence from 3.1875271461891692e-03 to 3.1875271461891791e-03 seconds.
Warning: Simulation tolerance relaxed to achieve convergence from 3.1875271461891791e-03 to 3.1875271461891891e-03 seconds.
Warning: Simulation tolerance relaxed to achieve convergence from 3.1875271461891891e-03 to 3.1875271461891991e-03 seconds.
Warning: Simulation tolerance relaxed to achieve convergence from 3.1875271461891991e-03 to 3.1875271461892091e-03 seconds.
Warning: Simulation tolerance relaxed to achieve convergence from 3.1875271461892091e-03 to 3.1875271461892190e-03 seconds.
Warning: Simulation tolerance relaxed to achieve convergence from 3.1875271461892490e-03 to 3.1875271461892589e-03 seconds.
Warning: Simulation tolerance relaxed to achieve convergence from 3.1875271461892589e-03 to 3.1875271461892689e-03 seconds.
Warning: Simulation tolerance relaxed to achieve convergence from 3.1875271461892689e-03 to 3.1875271461892789e-03 seconds.
Warning: Simulation tolerance relaxed to achieve convergence from 3.1875271461894285e-03 to 3.1875271461894385e-03 seconds.
Warning: Simulation tolerance relaxed to achieve convergence from 3.1875271461894385e-03 to 3.1875271461894485e-03 seconds.
Warning: Simulation tolerance relaxed to achieve convergence from 3.1875271461894485e-03 to 3.1875271461894584e-03 seconds.
Warning: Simulation tolerance relaxed to achieve convergence from 3.1875271461894884e-03 to 3.1875271461894983e-03 seconds.
Warning: Simulation tolerance relaxed to achieve convergence from 3.1875271461895083e-03 to 3.1875271461895183e-03 seconds.
Warning: Simulation tolerance relaxed to achieve convergence from 3.1875271461895183e-03 to 3.1875271461895283e-03 seconds.
Warning: Simulation tolerance relaxed to achieve convergence from 3.1875271461895283e-03 to 3.1875271461895382e-03 seconds.
Warning: Simulation tolerance relaxed to achieve convergence from 3.1875271461895382e-03 to 3.1875271461895482e-03 seconds.
Warning: Simulation tolerance relaxed to achieve convergence from 3.1875271461898474e-03 to 3.1875271461898574e-03 seconds.
Warning: Simulation tolerance relaxed to achieve convergence from 3.1875271461898774e-03 to 3.1875271461898873e-03 seconds.
Warning: Simulation tolerance relaxed to achieve convergence from 3.1875271461898873e-03 to 3.1875271461898973e-03 seconds.
Warning: Simulation tolerance relaxed to achieve convergence from 3.1875271461898973e-03 to 3.1875271461899073e-03 seconds.
Warning: Simulation tolerance relaxed to achieve convergence from 3.1875271461899073e-03 to 3.1875271461899173e-03 seconds.
Warning: Simulation tolerance relaxed to achieve convergence from 3.1875271461899572e-03 to 3.1875271461899671e-03 seconds.
Warning: Simulation tolerance relaxed to achieve convergence from 3.1875271461899671e-03 to 3.1875271461899771e-03 seconds.
Warning: Simulation tolerance relaxed to achieve convergence from 3.1875271461899771e-03 to 3.1875271461899871e-03 seconds.
Warning: Simulation tolerance relaxed to achieve convergence from 3.1875271461899971e-03 to 3.1875271461900070e-03 seconds.
Warning: Simulation tolerance relaxed to achieve convergence from 3.1875271461900070e-03 to 3.1875271461900170e-03 seconds.
Warning: Simulation tolerance relaxed to achieve convergence from 3.1875271461900270e-03 to 3.1875271461900370e-03 seconds.
Warning: Simulation tolerance relaxed to achieve convergence from 3.1875271461900469e-03 to 3.1875271461900569e-03 seconds.
Warning: Simulation tolerance relaxed to achieve convergence from 3.1875271461900868e-03 to 3.1875271461900968e-03 seconds.
Warning: Simulation tolerance relaxed to achieve convergence from 3.1875271461901168e-03 to 3.1875271461901267e-03 seconds.
Warning: Simulation tolerance relaxed to achieve convergence from 3.1875271461901267e-03 to 3.1875271461901367e-03 seconds.
Warning: Simulation tolerance relaxed to achieve convergence from 3.1875271461901467e-03 to 3.1875271461901567e-03 seconds.
Warning: Simulation tolerance relaxed to achieve convergence from 3.1875271461901567e-03 to 3.1875271461901666e-03 seconds.
Warning: Simulation tolerance relaxed to achieve convergence from 3.1875271461901866e-03 to 3.1875271461901966e-03 seconds.
Warning: Simulation tolerance relaxed to achieve convergence from 3.1875271461901966e-03 to 3.1875271461902065e-03 seconds.
Warning: Simulation tolerance relaxed to achieve convergence from 3.1875271461902165e-03 to 3.1875271461902265e-03 seconds.
Warning: Simulation tolerance relaxed to achieve convergence from 3.1875271461902464e-03 to 3.1875271461902564e-03 seconds.
Warning: Simulation tolerance relaxed to achieve convergence from 3.1875271461902564e-03 to 3.1875271461902664e-03 seconds.
Warning: Simulation tolerance relaxed to achieve convergence from 3.1875271461902664e-03 to 3.1875271461902764e-03 seconds.
Warning: Simulation tolerance relaxed to achieve convergence from 3.1875271461902863e-03 to 3.1875271461902963e-03 seconds.
Warning: Simulation tolerance relaxed to achieve convergence from 3.1875271461903163e-03 to 3.1875271461903262e-03 seconds.
Warning: Simulation tolerance relaxed to achieve convergence from 3.1875271461903262e-03 to 3.1875271461903362e-03 seconds.
Warning: Simulation tolerance relaxed to achieve convergence from 3.1875271461903362e-03 to 3.1875271461903462e-03 seconds.
Warning: Simulation tolerance relaxed to achieve convergence from 3.1875271461903462e-03 to 3.1875271461903562e-03 seconds.
Warning: Simulation tolerance relaxed to achieve convergence from 3.1875271461903562e-03 to 3.1875271461903661e-03 seconds.
Warning: Simulation tolerance relaxed to achieve convergence from 3.1875271461903661e-03 to 3.1875271461903761e-03 seconds.
Warning: Simulation tolerance relaxed to achieve convergence from 3.1875271461903761e-03 to 3.1875271461903861e-03 seconds.
Warning: Simulation tolerance relaxed to achieve convergence from 3.1875271461903861e-03 to 3.1875271461903961e-03 seconds.
Warning: Simulation tolerance relaxed to achieve convergence from 3.1875271461903961e-03 to 3.1875271461904060e-03 seconds.
Warning: Simulation tolerance relaxed to achieve convergence from 3.1875271461904260e-03 to 3.1875271461904360e-03 seconds.
Warning: Simulation tolerance relaxed to achieve convergence from 3.1875271461904659e-03 to 3.1875271461904759e-03 seconds.
Warning: Simulation tolerance relaxed to achieve convergence from 3.1875271461904759e-03 to 3.1875271461904858e-03 seconds.
Warning: Simulation tolerance relaxed to achieve convergence from 3.1875271461904858e-03 to 3.1875271461904958e-03 seconds.
Warning: Simulation tolerance relaxed to achieve convergence from 3.1875271461904958e-03 to 3.1875271461905058e-03 seconds.
Warning: Simulation tolerance relaxed to achieve convergence from 3.1875271461905058e-03 to 3.1875271461905158e-03 seconds.
Warning: Simulation tolerance relaxed to achieve convergence from 3.1875271461905357e-03 to 3.1875271461905457e-03 seconds.
Warning: Simulation tolerance relaxed to achieve convergence from 3.1875271461905556e-03 to 3.1875271461905656e-03 seconds.
Warning: Simulation tolerance relaxed to achieve convergence from 3.1875271461907053e-03 to 3.1875271461907152e-03 seconds.
Warning: Simulation tolerance relaxed to achieve convergence from 3.1875271461907152e-03 to 3.1875271461907252e-03 seconds.
Warning: Simulation tolerance relaxed to achieve convergence from 3.1875271461907252e-03 to 3.1875271461907352e-03 seconds.
Warning: Simulation tolerance relaxed to achieve convergence from 3.1875271461907551e-03 to 3.1875271461907651e-03 seconds.
Warning: Simulation tolerance relaxed to achieve convergence from 3.1875271461907751e-03 to 3.1875271461907851e-03 seconds.
Warning: Simulation tolerance relaxed to achieve convergence from 3.1875271461907851e-03 to 3.1875271461907950e-03 seconds.
Warning: Simulation tolerance relaxed to achieve convergence from 3.1875271461907950e-03 to 3.1875271461908050e-03 seconds.
Warning: Simulation tolerance relaxed to achieve convergence from 3.1875271461908150e-03 to 3.1875271461908250e-03 seconds.
Warning: Simulation tolerance relaxed to achieve convergence from 3.1875271461908748e-03 to 3.1875271461908848e-03 seconds.
Warning: Simulation tolerance relaxed to achieve convergence from 3.1875271461909147e-03 to 3.1875271461909247e-03 seconds.
Warning: Simulation tolerance relaxed to achieve convergence from 3.1875271461909447e-03 to 3.1875271461909546e-03 seconds.
Warning: Simulation tolerance relaxed to achieve convergence from 3.1875271461909546e-03 to 3.1875271461909646e-03 seconds.
Warning: Simulation tolerance relaxed to achieve convergence from 3.1875271461909646e-03 to 3.1875271461909746e-03 seconds.
Warning: Simulation tolerance relaxed to achieve convergence from 3.1875271461909746e-03 to 3.1875271461909846e-03 seconds.
Warning: Simulation tolerance relaxed to achieve convergence from 3.1875271461909846e-03 to 3.1875271461909945e-03 seconds.
Warning: Simulation tolerance relaxed to achieve convergence from 3.1875271461910245e-03 to 3.1875271461910344e-03 seconds.
Warning: Simulation tolerance relaxed to achieve convergence from 3.1875271461910344e-03 to 3.1875271461910444e-03 seconds.
Warning: Simulation tolerance relaxed to achieve convergence from 3.1875271461910444e-03 to 3.1875271461910544e-03 seconds.
Warning: Simulation tolerance relaxed to achieve convergence from 3.1875271461910644e-03 to 3.1875271461910743e-03 seconds.
Warning: Simulation tolerance relaxed to achieve convergence from 3.1875271461911043e-03 to 3.1875271461911142e-03 seconds.
Warning: Simulation tolerance relaxed to achieve convergence from 3.1875271461911142e-03 to 3.1875271461911242e-03 seconds.
Warning: Simulation tolerance relaxed to achieve convergence from 3.1875271461911242e-03 to 3.1875271461911342e-03 seconds.
Warning: Simulation tolerance relaxed to achieve convergence from 3.1875271461911342e-03 to 3.1875271461911442e-03 seconds.
Warning: Simulation tolerance relaxed to achieve convergence from 3.1875271461911442e-03 to 3.1875271461911541e-03 seconds.
Warning: Simulation tolerance relaxed to achieve convergence from 3.1875271461911741e-03 to 3.1875271461911841e-03 seconds.
Warning: Simulation tolerance relaxed to achieve convergence from 3.1875271461912040e-03 to 3.1875271461912140e-03 seconds.
Warning: Simulation tolerance relaxed to achieve convergence from 3.1875271461912639e-03 to 3.1875271461912738e-03 seconds.
Warning: Simulation tolerance relaxed to achieve convergence from 3.1875271461912738e-03 to 3.1875271461912838e-03 seconds.
Warning: Simulation tolerance relaxed to achieve convergence from 3.1875271461912838e-03 to 3.1875271461912938e-03 seconds.
Warning: Simulation tolerance relaxed to achieve convergence from 3.1875271461912938e-03 to 3.1875271461913037e-03 seconds.
Warning: Simulation tolerance relaxed to achieve convergence from 3.1875271461913037e-03 to 3.1875271461913137e-03 seconds.
Warning: Simulation tolerance relaxed to achieve convergence from 3.1875271461913237e-03 to 3.1875271461913337e-03 seconds.
Warning: Simulation tolerance relaxed to achieve convergence from 3.1875271461913337e-03 to 3.1875271461913436e-03 seconds.
Warning: Simulation tolerance relaxed to achieve convergence from 3.1875271461913536e-03 to 3.1875271461913636e-03 seconds.
Warning: Simulation tolerance relaxed to achieve convergence from 3.1875271461913636e-03 to 3.1875271461913736e-03 seconds.
Warning: Simulation tolerance relaxed to achieve convergence from 3.1875271461913736e-03 to 3.1875271461913835e-03 seconds.
Warning: Simulation tolerance relaxed to achieve convergence from 3.1875271461914135e-03 to 3.1875271461914234e-03 seconds.
Warning: Simulation tolerance relaxed to achieve convergence from 3.1875271461914434e-03 to 3.1875271461914534e-03 seconds.
Warning: Simulation tolerance relaxed to achieve convergence from 3.1875271461915132e-03 to 3.1875271461915232e-03 seconds.
Warning: Simulation tolerance relaxed to achieve convergence from 3.1875271461915332e-03 to 3.1875271461915431e-03 seconds.
Warning: Simulation tolerance relaxed to achieve convergence from 3.1875271461915431e-03 to 3.1875271461915531e-03 seconds.
Warning: Simulation tolerance relaxed to achieve convergence from 3.1875271461915731e-03 to 3.1875271461915830e-03 seconds.
Warning: Simulation tolerance relaxed to achieve convergence from 3.1875271461915830e-03 to 3.1875271461915930e-03 seconds.
Warning: Simulation tolerance relaxed to achieve convergence from 3.1875271461915930e-03 to 3.1875271461916030e-03 seconds.
Warning: Simulation tolerance relaxed to achieve convergence from 3.1875271461916130e-03 to 3.1875271461916229e-03 seconds.
Warning: Simulation tolerance relaxed to achieve convergence from 3.1875271461916529e-03 to 3.1875271461916628e-03 seconds.
Warning: Simulation tolerance relaxed to achieve convergence from 3.1875271461916628e-03 to 3.1875271461916728e-03 seconds.
Warning: Simulation tolerance relaxed to achieve convergence from 3.1875271461917127e-03 to 3.1875271461917227e-03 seconds.
Warning: Simulation tolerance relaxed to achieve convergence from 3.1875271461917227e-03 to 3.1875271461917327e-03 seconds.
Warning: Simulation tolerance relaxed to achieve convergence from 3.1875271461917426e-03 to 3.1875271461917526e-03 seconds.
Warning: Simulation tolerance relaxed to achieve convergence from 3.1875271461917825e-03 to 3.1875271461917925e-03 seconds.
Warning: Simulation tolerance relaxed to achieve convergence from 3.1875271461918324e-03 to 3.1875271461918424e-03 seconds.
Warning: Simulation tolerance relaxed to achieve convergence from 3.1875271461918424e-03 to 3.1875271461918524e-03 seconds.
Warning: Simulation tolerance relaxed to achieve convergence from 3.1875271461918524e-03 to 3.1875271461918623e-03 seconds.
Warning: Simulation tolerance relaxed to achieve convergence from 3.1875271461918823e-03 to 3.1875271461918923e-03 seconds.
Warning: Simulation tolerance relaxed to achieve convergence from 3.1875271461919421e-03 to 3.1875271461919521e-03 seconds.
Warning: Simulation tolerance relaxed to achieve convergence from 3.1875271461919521e-03 to 3.1875271461919621e-03 seconds.
Warning: Simulation tolerance relaxed to achieve convergence from 3.1875271461919621e-03 to 3.1875271461919721e-03 seconds.
Warning: Simulation tolerance relaxed to achieve convergence from 3.1875271461919721e-03 to 3.1875271461919820e-03 seconds.
Warning: Simulation tolerance relaxed to achieve convergence from 3.1875271461919820e-03 to 3.1875271461919920e-03 seconds.
Warning: Simulation tolerance relaxed to achieve convergence from 3.1875271461920419e-03 to 3.1875271461920518e-03 seconds.
Warning: Simulation tolerance relaxed to achieve convergence from 3.1875271461920917e-03 to 3.1875271461921017e-03 seconds.
Warning: Simulation tolerance relaxed to achieve convergence from 3.1875271461921017e-03 to 3.1875271461921117e-03 seconds.
Warning: Simulation tolerance relaxed to achieve convergence from 3.1875271461921117e-03 to 3.1875271461921217e-03 seconds.
Warning: Simulation tolerance relaxed to achieve convergence from 3.1875271461921316e-03 to 3.1875271461921416e-03 seconds.
Warning: Simulation tolerance relaxed to achieve convergence from 3.1875271461921416e-03 to 3.1875271461921516e-03 seconds.
Warning: Simulation tolerance relaxed to achieve convergence from 3.1875271461921715e-03 to 3.1875271461921815e-03 seconds.
Warning: Simulation tolerance relaxed to achieve convergence from 3.1875271461921815e-03 to 3.1875271461921915e-03 seconds.
Warning: Simulation tolerance relaxed to achieve convergence from 3.1875271461921915e-03 to 3.1875271461922015e-03 seconds.
Warning: Simulation tolerance relaxed to achieve convergence from 3.1875271461922214e-03 to 3.1875271461922314e-03 seconds.
Warning: Simulation tolerance relaxed to achieve convergence from 3.1875271461922912e-03 to 3.1875271461923012e-03 seconds.
Warning: Simulation tolerance relaxed to achieve convergence from 3.1875271461923511e-03 to 3.1875271461923611e-03 seconds.
Warning: Simulation tolerance relaxed to achieve convergence from 3.1875271461923710e-03 to 3.1875271461923810e-03 seconds.
Warning: Simulation tolerance relaxed to achieve convergence from 3.1875271461923810e-03 to 3.1875271461923910e-03 seconds.
Warning: Simulation tolerance relaxed to achieve convergence from 3.1875271461925705e-03 to 3.1875271461925805e-03 seconds.
Warning: Simulation tolerance relaxed to achieve convergence from 3.1875271461925805e-03 to 3.1875271461925905e-03 seconds.
Warning: Simulation tolerance relaxed to achieve convergence from 3.1875271461925905e-03 to 3.1875271461926005e-03 seconds.
Warning: Simulation tolerance relaxed to achieve convergence from 3.1875271461926005e-03 to 3.1875271461926104e-03 seconds.
Warning: Simulation tolerance relaxed to achieve convergence from 3.1875271461926104e-03 to 3.1875271461926204e-03 seconds.
Warning: Simulation tolerance relaxed to achieve convergence from 3.1875271461926603e-03 to 3.1875271461926703e-03 seconds.
Warning: Simulation tolerance relaxed to achieve convergence from 3.1875271461926803e-03 to 3.1875271461926902e-03 seconds.
Warning: Simulation tolerance relaxed to achieve convergence from 3.1875271461926902e-03 to 3.1875271461927002e-03 seconds.
Warning: Simulation tolerance relaxed to achieve convergence from 3.1875271461927002e-03 to 3.1875271461927102e-03 seconds.
Warning: Simulation tolerance relaxed to achieve convergence from 3.1875271461927202e-03 to 3.1875271461927301e-03 seconds.
Warning: Simulation tolerance relaxed to achieve convergence from 3.1875271461927301e-03 to 3.1875271461927401e-03 seconds.
Warning: Simulation tolerance relaxed to achieve convergence from 3.1875271461927401e-03 to 3.1875271461927501e-03 seconds.
Warning: Simulation tolerance relaxed to achieve convergence from 3.1875271461927501e-03 to 3.1875271461927600e-03 seconds.
Warning: Simulation tolerance relaxed to achieve convergence from 3.1875271461927800e-03 to 3.1875271461927900e-03 seconds.
Warning: Simulation tolerance relaxed to achieve convergence from 3.1875271461927900e-03 to 3.1875271461927999e-03 seconds.
Warning: Simulation tolerance relaxed to achieve convergence from 3.1875271461927999e-03 to 3.1875271461928099e-03 seconds.
Warning: Simulation tolerance relaxed to achieve convergence from 3.1875271461928698e-03 to 3.1875271461928797e-03 seconds.
Warning: Simulation tolerance relaxed to achieve convergence from 3.1875271461928797e-03 to 3.1875271461928897e-03 seconds.
Warning: Simulation tolerance relaxed to achieve convergence from 3.1875271461929097e-03 to 3.1875271461929196e-03 seconds.
Warning: Simulation tolerance relaxed to achieve convergence from 3.1875271461929396e-03 to 3.1875271461929496e-03 seconds.
Warning: Simulation tolerance relaxed to achieve convergence from 3.1875271461929695e-03 to 3.1875271461929795e-03 seconds.
Warning: Simulation tolerance relaxed to achieve convergence from 3.1875271461930094e-03 to 3.1875271461930194e-03 seconds.
Warning: Simulation tolerance relaxed to achieve convergence from 3.1875271461930194e-03 to 3.1875271461930294e-03 seconds.
Warning: Simulation tolerance relaxed to achieve convergence from 3.1875271461930294e-03 to 3.1875271461930393e-03 seconds.
Warning: Simulation tolerance relaxed to achieve convergence from 3.1875271461930393e-03 to 3.1875271461930493e-03 seconds.
Warning: Simulation tolerance relaxed to achieve convergence from 3.1875271461930493e-03 to 3.1875271461930593e-03 seconds.
Warning: Simulation tolerance relaxed to achieve convergence from 3.1875271461931291e-03 to 3.1875271461931391e-03 seconds.
Warning: Simulation tolerance relaxed to achieve convergence from 3.1875271461931790e-03 to 3.1875271461931890e-03 seconds.
Warning: Simulation tolerance relaxed to achieve convergence from 3.1875271461931890e-03 to 3.1875271461931989e-03 seconds.
Warning: Simulation tolerance relaxed to achieve convergence from 3.1875271461932388e-03 to 3.1875271461932488e-03 seconds.
Warning: Simulation tolerance relaxed to achieve convergence from 3.1875271461932688e-03 to 3.1875271461932787e-03 seconds.
Warning: Simulation tolerance relaxed to achieve convergence from 3.1875271461932887e-03 to 3.1875271461932987e-03 seconds.
Warning: Simulation tolerance relaxed to achieve convergence from 3.1875271461932987e-03 to 3.1875271461933087e-03 seconds.
Warning: Simulation tolerance relaxed to achieve convergence from 3.1875271461933087e-03 to 3.1875271461933186e-03 seconds.
Warning: Simulation tolerance relaxed to achieve convergence from 3.1875271461933186e-03 to 3.1875271461933286e-03 seconds.
Warning: Simulation tolerance relaxed to achieve convergence from 3.1875271461933286e-03 to 3.1875271461933386e-03 seconds.
Warning: Simulation tolerance relaxed to achieve convergence from 3.1875271461933386e-03 to 3.1875271461933486e-03 seconds.
Warning: Simulation tolerance relaxed to achieve convergence from 3.1875271461933486e-03 to 3.1875271461933585e-03 seconds.
Warning: Simulation tolerance relaxed to achieve convergence from 3.1875271461933585e-03 to 3.1875271461933685e-03 seconds.
Warning: Simulation tolerance relaxed to achieve convergence from 3.1875271461933685e-03 to 3.1875271461933785e-03 seconds.
Warning: Simulation tolerance relaxed to achieve convergence from 3.1875271461933785e-03 to 3.1875271461933885e-03 seconds.
Warning: Simulation tolerance relaxed to achieve convergence from 3.1875271461933885e-03 to 3.1875271461933984e-03 seconds.
Warning: Simulation tolerance relaxed to achieve convergence from 3.1875271461933984e-03 to 3.1875271461934084e-03 seconds.
Warning: Simulation tolerance relaxed to achieve convergence from 3.1875271461934284e-03 to 3.1875271461934383e-03 seconds.
Warning: Simulation tolerance relaxed to achieve convergence from 3.1875271461934383e-03 to 3.1875271461934483e-03 seconds.
Warning: Simulation tolerance relaxed to achieve convergence from 3.1875271461934782e-03 to 3.1875271461934882e-03 seconds.
Warning: Simulation tolerance relaxed to achieve convergence from 3.1875271461935281e-03 to 3.1875271461935381e-03 seconds.
Warning: Simulation tolerance relaxed to achieve convergence from 3.1875271461935780e-03 to 3.1875271461935879e-03 seconds.
Warning: Simulation tolerance relaxed to achieve convergence from 3.1875271461935879e-03 to 3.1875271461935979e-03 seconds.
Warning: Simulation tolerance relaxed to achieve convergence from 3.1875271461937675e-03 to 3.1875271461937775e-03 seconds.
Warning: Simulation tolerance relaxed to achieve convergence from 3.1875271461937775e-03 to 3.1875271461937874e-03 seconds.
Warning: Simulation tolerance relaxed to achieve convergence from 3.1875271461937874e-03 to 3.1875271461937974e-03 seconds.
Warning: Simulation tolerance relaxed to achieve convergence from 3.1875271461937974e-03 to 3.1875271461938074e-03 seconds.
Warning: Simulation tolerance relaxed to achieve convergence from 3.1875271461938174e-03 to 3.1875271461938273e-03 seconds.
Warning: Simulation tolerance relaxed to achieve convergence from 3.1875271461938273e-03 to 3.1875271461938373e-03 seconds.
Warning: Simulation tolerance relaxed to achieve convergence from 3.1875271461938373e-03 to 3.1875271461938473e-03 seconds.
Warning: Simulation tolerance relaxed to achieve convergence from 3.1875271461939869e-03 to 3.1875271461939969e-03 seconds.
Warning: Simulation tolerance relaxed to achieve convergence from 3.1875271461939969e-03 to 3.1875271461940069e-03 seconds.
Warning: Simulation tolerance relaxed to achieve convergence from 3.1875271461940069e-03 to 3.1875271461940169e-03 seconds.
Warning: Simulation tolerance relaxed to achieve convergence from 3.1875271461940169e-03 to 3.1875271461940268e-03 seconds.
Warning: Simulation tolerance relaxed to achieve convergence from 3.1875271461940268e-03 to 3.1875271461940368e-03 seconds.
Warning: Simulation tolerance relaxed to achieve convergence from 3.1875271461940468e-03 to 3.1875271461940568e-03 seconds.
Warning: Simulation tolerance relaxed to achieve convergence from 3.1875271461941166e-03 to 3.1875271461941266e-03 seconds.
Warning: Simulation tolerance relaxed to achieve convergence from 3.1875271461941366e-03 to 3.1875271461941465e-03 seconds.
Warning: Simulation tolerance relaxed to achieve convergence from 3.1875271461941465e-03 to 3.1875271461941565e-03 seconds.
Warning: Simulation tolerance relaxed to achieve convergence from 3.1875271461941565e-03 to 3.1875271461941665e-03 seconds.
Warning: Simulation tolerance relaxed to achieve convergence from 3.1875271461941665e-03 to 3.1875271461941765e-03 seconds.
Warning: Simulation tolerance relaxed to achieve convergence from 3.1875271461941765e-03 to 3.1875271461941864e-03 seconds.
Warning: Simulation tolerance relaxed to achieve convergence from 3.1875271461941864e-03 to 3.1875271461941964e-03 seconds.
Warning: Simulation tolerance relaxed to achieve convergence from 3.1875271461941964e-03 to 3.1875271461942064e-03 seconds.
Warning: Simulation tolerance relaxed to achieve convergence from 3.1875271461942064e-03 to 3.1875271461942164e-03 seconds.
Warning: Simulation tolerance relaxed to achieve convergence from 3.1875271461942363e-03 to 3.1875271461942463e-03 seconds.
Warning: Simulation tolerance relaxed to achieve convergence from 3.1875271461942463e-03 to 3.1875271461942562e-03 seconds.
Warning: Simulation tolerance relaxed to achieve convergence from 3.1875271461942562e-03 to 3.1875271461942662e-03 seconds.
Warning: Simulation tolerance relaxed to achieve convergence from 3.1875271461942762e-03 to 3.1875271461942862e-03 seconds.
Warning: Simulation tolerance relaxed to achieve convergence from 3.1875271461943061e-03 to 3.1875271461943161e-03 seconds.
Warning: Simulation tolerance relaxed to achieve convergence from 3.1875271461943360e-03 to 3.1875271461943460e-03 seconds.
Warning: Simulation tolerance relaxed to achieve convergence from 3.1875271461943660e-03 to 3.1875271461943759e-03 seconds.
Warning: Simulation tolerance relaxed to achieve convergence from 3.1875271461943759e-03 to 3.1875271461943859e-03 seconds.
Warning: Simulation tolerance relaxed to achieve convergence from 3.1875271461943859e-03 to 3.1875271461943959e-03 seconds.
Warning: Simulation tolerance relaxed to achieve convergence from 3.1875271461943959e-03 to 3.1875271461944059e-03 seconds.
Warning: Simulation tolerance relaxed to achieve convergence from 3.1875271461944258e-03 to 3.1875271461944358e-03 seconds.
Warning: Simulation tolerance relaxed to achieve convergence from 3.1875271461944358e-03 to 3.1875271461944458e-03 seconds.
Warning: Simulation tolerance relaxed to achieve convergence from 3.1875271461944557e-03 to 3.1875271461944657e-03 seconds.
Warning: Simulation tolerance relaxed to achieve convergence from 3.1875271461946153e-03 to 3.1875271461946253e-03 seconds.
Warning: Simulation tolerance relaxed to achieve convergence from 3.1875271461946652e-03 to 3.1875271461946752e-03 seconds.
Warning: Simulation tolerance relaxed to achieve convergence from 3.1875271461946852e-03 to 3.1875271461946951e-03 seconds.
Warning: Simulation tolerance relaxed to achieve convergence from 3.1875271461947151e-03 to 3.1875271461947251e-03 seconds.
Warning: Simulation tolerance relaxed to achieve convergence from 3.1875271461947251e-03 to 3.1875271461947350e-03 seconds.
Warning: Simulation tolerance relaxed to achieve convergence from 3.1875271461947350e-03 to 3.1875271461947450e-03 seconds.
Warning: Simulation tolerance relaxed to achieve convergence from 3.1875271461947450e-03 to 3.1875271461947550e-03 seconds.
Warning: Simulation tolerance relaxed to achieve convergence from 3.1875271461947650e-03 to 3.1875271461947749e-03 seconds.
Warning: Simulation tolerance relaxed to achieve convergence from 3.1875271461947749e-03 to 3.1875271461947849e-03 seconds.
Warning: Simulation tolerance relaxed to achieve convergence from 3.1875271461947849e-03 to 3.1875271461947949e-03 seconds.
Warning: Simulation tolerance relaxed to achieve convergence from 3.1875271461948148e-03 to 3.1875271461948248e-03 seconds.
Warning: Simulation tolerance relaxed to achieve convergence from 3.1875271461949046e-03 to 3.1875271461949146e-03 seconds.
Warning: Simulation tolerance relaxed to achieve convergence from 3.1875271461949146e-03 to 3.1875271461949246e-03 seconds.
Warning: Simulation tolerance relaxed to achieve convergence from 3.1875271461949644e-03 to 3.1875271461949744e-03 seconds.
Warning: Simulation tolerance relaxed to achieve convergence from 3.1875271461950143e-03 to 3.1875271461950243e-03 seconds.
Warning: Simulation tolerance relaxed to achieve convergence from 3.1875271461950243e-03 to 3.1875271461950343e-03 seconds.
Warning: Simulation tolerance relaxed to achieve convergence from 3.1875271461950343e-03 to 3.1875271461950442e-03 seconds.
Warning: Simulation tolerance relaxed to achieve convergence from 3.1875271461950442e-03 to 3.1875271461950542e-03 seconds.
Warning: Simulation tolerance relaxed to achieve convergence from 3.1875271461950542e-03 to 3.1875271461950642e-03 seconds.
Warning: Simulation tolerance relaxed to achieve convergence from 3.1875271461950642e-03 to 3.1875271461950742e-03 seconds.
Warning: Simulation tolerance relaxed to achieve convergence from 3.1875271461950841e-03 to 3.1875271461950941e-03 seconds.
Warning: Simulation tolerance relaxed to achieve convergence from 3.1875271461951041e-03 to 3.1875271461951141e-03 seconds.
Warning: Simulation tolerance relaxed to achieve convergence from 3.1875271461951141e-03 to 3.1875271461951240e-03 seconds.
Warning: Simulation tolerance relaxed to achieve convergence from 3.1875271461951440e-03 to 3.1875271461951540e-03 seconds.
Warning: Simulation tolerance relaxed to achieve convergence from 3.1875271461951739e-03 to 3.1875271461951839e-03 seconds.
Warning: Simulation tolerance relaxed to achieve convergence from 3.1875271461951839e-03 to 3.1875271461951939e-03 seconds.
Warning: Simulation tolerance relaxed to achieve convergence from 3.1875271461952038e-03 to 3.1875271461952138e-03 seconds.
Warning: Simulation tolerance relaxed to achieve convergence from 3.1875271461952138e-03 to 3.1875271461952238e-03 seconds.
Warning: Simulation tolerance relaxed to achieve convergence from 3.1875271461952238e-03 to 3.1875271461952338e-03 seconds.
Warning: Simulation tolerance relaxed to achieve convergence from 3.1875271461952338e-03 to 3.1875271461952437e-03 seconds.
Warning: Simulation tolerance relaxed to achieve convergence from 3.1875271461952637e-03 to 3.1875271461952737e-03 seconds.
Warning: Simulation tolerance relaxed to achieve convergence from 3.1875271461952737e-03 to 3.1875271461952836e-03 seconds.
Warning: Simulation tolerance relaxed to achieve convergence from 3.1875271461952836e-03 to 3.1875271461952936e-03 seconds.
Warning: Simulation tolerance relaxed to achieve convergence from 3.1875271461953235e-03 to 3.1875271461953335e-03 seconds.
Warning: Simulation tolerance relaxed to achieve convergence from 3.1875271461953335e-03 to 3.1875271461953435e-03 seconds.
Warning: Simulation tolerance relaxed to achieve convergence from 3.1875271461953435e-03 to 3.1875271461953535e-03 seconds.
Warning: Simulation tolerance relaxed to achieve convergence from 3.1875271461953535e-03 to 3.1875271461953634e-03 seconds.
Warning: Simulation tolerance relaxed to achieve convergence from 3.1875271461953634e-03 to 3.1875271461953734e-03 seconds.
Warning: Simulation tolerance relaxed to achieve convergence from 3.1875271461953734e-03 to 3.1875271461953834e-03 seconds.
Warning: Simulation tolerance relaxed to achieve convergence from 3.1875271461953834e-03 to 3.1875271461953934e-03 seconds.
Warning: Simulation tolerance relaxed to achieve convergence from 3.1875271461954033e-03 to 3.1875271461954133e-03 seconds.
Warning: Simulation tolerance relaxed to achieve convergence from 3.1875271461954133e-03 to 3.1875271461954233e-03 seconds.
Warning: Simulation tolerance relaxed to achieve convergence from 3.1875271461954233e-03 to 3.1875271461954333e-03 seconds.
Warning: Simulation tolerance relaxed to achieve convergence from 3.1875271461954432e-03 to 3.1875271461954532e-03 seconds.
Warning: Simulation tolerance relaxed to achieve convergence from 3.1875271461954732e-03 to 3.1875271461954831e-03 seconds.
Warning: Simulation tolerance relaxed to achieve convergence from 3.1875271461955131e-03 to 3.1875271461955230e-03 seconds.
Warning: Simulation tolerance relaxed to achieve convergence from 3.1875271461958223e-03 to 3.1875271461958322e-03 seconds.
Warning: Simulation tolerance relaxed to achieve convergence from 3.1875271461958322e-03 to 3.1875271461958422e-03 seconds.
Warning: Simulation tolerance relaxed to achieve convergence from 3.1875271461958422e-03 to 3.1875271461958522e-03 seconds.
Warning: Simulation tolerance relaxed to achieve convergence from 3.1875271461958721e-03 to 3.1875271461958821e-03 seconds.
Warning: Simulation tolerance relaxed to achieve convergence from 3.1875271461958821e-03 to 3.1875271461958921e-03 seconds.
Warning: Simulation tolerance relaxed to achieve convergence from 3.1875271461959220e-03 to 3.1875271461959320e-03 seconds.
Warning: Simulation tolerance relaxed to achieve convergence from 3.1875271461959519e-03 to 3.1875271461959619e-03 seconds.
Warning: Simulation tolerance relaxed to achieve convergence from 3.1875271461959619e-03 to 3.1875271461959719e-03 seconds.
Warning: Simulation tolerance relaxed to achieve convergence from 3.1875271461959819e-03 to 3.1875271461959918e-03 seconds.
Warning: Simulation tolerance relaxed to achieve convergence from 3.1875271461962811e-03 to 3.1875271461962911e-03 seconds.
Warning: Simulation tolerance relaxed to achieve convergence from 3.1875271461963210e-03 to 3.1875271461963310e-03 seconds.
Warning: Simulation tolerance relaxed to achieve convergence from 3.1875271461963310e-03 to 3.1875271461963410e-03 seconds.
Warning: Simulation tolerance relaxed to achieve convergence from 3.1875271461963410e-03 to 3.1875271461963509e-03 seconds.
Warning: Simulation tolerance relaxed to achieve convergence from 3.1875271461963609e-03 to 3.1875271461963709e-03 seconds.
Warning: Simulation tolerance relaxed to achieve convergence from 3.1875271461964008e-03 to 3.1875271461964108e-03 seconds.
Warning: Simulation tolerance relaxed to achieve convergence from 3.1875271461964207e-03 to 3.1875271461964307e-03 seconds.
Warning: Simulation tolerance relaxed to achieve convergence from 3.1875271461964307e-03 to 3.1875271461964407e-03 seconds.
Warning: Simulation tolerance relaxed to achieve convergence from 3.1875271461964606e-03 to 3.1875271461964706e-03 seconds.
Warning: Simulation tolerance relaxed to achieve convergence from 3.1875271461964806e-03 to 3.1875271461964906e-03 seconds.
Warning: Simulation tolerance relaxed to achieve convergence from 3.1875271461964906e-03 to 3.1875271461965005e-03 seconds.
Warning: Simulation tolerance relaxed to achieve convergence from 3.1875271461965005e-03 to 3.1875271461965105e-03 seconds.
Warning: Simulation tolerance relaxed to achieve convergence from 3.1875271461965305e-03 to 3.1875271461965404e-03 seconds.
Warning: Simulation tolerance relaxed to achieve convergence from 3.1875271461965704e-03 to 3.1875271461965803e-03 seconds.
Warning: Simulation tolerance relaxed to achieve convergence from 3.1875271461965803e-03 to 3.1875271461965903e-03 seconds.
Warning: Simulation tolerance relaxed to achieve convergence from 3.1875271461966003e-03 to 3.1875271461966103e-03 seconds.
Warning: Simulation tolerance relaxed to achieve convergence from 3.1875271461966103e-03 to 3.1875271461966202e-03 seconds.
Warning: Simulation tolerance relaxed to achieve convergence from 3.1875271461966302e-03 to 3.1875271461966402e-03 seconds.
Warning: Simulation tolerance relaxed to achieve convergence from 3.1875271461966502e-03 to 3.1875271461966601e-03 seconds.
Warning: Simulation tolerance relaxed to achieve convergence from 3.1875271461966701e-03 to 3.1875271461966801e-03 seconds.
Warning: Simulation tolerance relaxed to achieve convergence from 3.1875271461966801e-03 to 3.1875271461966901e-03 seconds.
Warning: Simulation tolerance relaxed to achieve convergence from 3.1875271461966901e-03 to 3.1875271461967000e-03 seconds.
Warning: Simulation tolerance relaxed to achieve convergence from 3.1875271461967000e-03 to 3.1875271461967100e-03 seconds.
Warning: Simulation tolerance relaxed to achieve convergence from 3.1875271461967300e-03 to 3.1875271461967399e-03 seconds.
Warning: Simulation tolerance relaxed to achieve convergence from 3.1875271461967399e-03 to 3.1875271461967499e-03 seconds.
Warning: Simulation tolerance relaxed to achieve convergence from 3.1875271461967599e-03 to 3.1875271461967699e-03 seconds.
Warning: Simulation tolerance relaxed to achieve convergence from 3.1875271461967699e-03 to 3.1875271461967798e-03 seconds.
Warning: Simulation tolerance relaxed to achieve convergence from 3.1875271461967798e-03 to 3.1875271461967898e-03 seconds.
Warning: Simulation tolerance relaxed to achieve convergence from 3.1875271461968197e-03 to 3.1875271461968297e-03 seconds.
Warning: Simulation tolerance relaxed to achieve convergence from 3.1875271461970093e-03 to 3.1875271461970192e-03 seconds.
Warning: Simulation tolerance relaxed to achieve convergence from 3.1875271461970192e-03 to 3.1875271461970292e-03 seconds.
Warning: Simulation tolerance relaxed to achieve convergence from 3.1875271461970492e-03 to 3.1875271461970591e-03 seconds.
Warning: Simulation tolerance relaxed to achieve convergence from 3.1875271461970691e-03 to 3.1875271461970791e-03 seconds.
Warning: Simulation tolerance relaxed to achieve convergence from 3.1875271461970891e-03 to 3.1875271461970990e-03 seconds.
Warning: Simulation tolerance relaxed to achieve convergence from 3.1875271461972287e-03 to 3.1875271461972387e-03 seconds.
Warning: Simulation tolerance relaxed to achieve convergence from 3.1875271461972586e-03 to 3.1875271461972686e-03 seconds.
Warning: Simulation tolerance relaxed to achieve convergence from 3.1875271461972686e-03 to 3.1875271461972786e-03 seconds.
Warning: Simulation tolerance relaxed to achieve convergence from 3.1875271461972985e-03 to 3.1875271461973085e-03 seconds.
Warning: Simulation tolerance relaxed to achieve convergence from 3.1875271461973085e-03 to 3.1875271461973185e-03 seconds.
Warning: Simulation tolerance relaxed to achieve convergence from 3.1875271461973584e-03 to 3.1875271461973683e-03 seconds.
Warning: Simulation tolerance relaxed to achieve convergence from 3.1875271461973683e-03 to 3.1875271461973783e-03 seconds.
Warning: Simulation tolerance relaxed to achieve convergence from 3.1875271461975479e-03 to 3.1875271461975579e-03 seconds.
Warning: Simulation tolerance relaxed to achieve convergence from 3.1875271461975579e-03 to 3.1875271461975678e-03 seconds.
Warning: Simulation tolerance relaxed to achieve convergence from 3.1875271461975878e-03 to 3.1875271461975978e-03 seconds.
Warning: Simulation tolerance relaxed to achieve convergence from 3.1875271461975978e-03 to 3.1875271461976077e-03 seconds.
Warning: Simulation tolerance relaxed to achieve convergence from 3.1875271461976077e-03 to 3.1875271461976177e-03 seconds.
Warning: Simulation tolerance relaxed to achieve convergence from 3.1875271461976277e-03 to 3.1875271461976377e-03 seconds.
Warning: Simulation tolerance relaxed to achieve convergence from 3.1875271461976377e-03 to 3.1875271461976476e-03 seconds.
Warning: Simulation tolerance relaxed to achieve convergence from 3.1875271461976476e-03 to 3.1875271461976576e-03 seconds.
Warning: Simulation tolerance relaxed to achieve convergence from 3.1875271461976576e-03 to 3.1875271461976676e-03 seconds.
Warning: Simulation tolerance relaxed to achieve convergence from 3.1875271461977075e-03 to 3.1875271461977175e-03 seconds.
Warning: Simulation tolerance relaxed to achieve convergence from 3.1875271461977574e-03 to 3.1875271461977673e-03 seconds.
Warning: Simulation tolerance relaxed to achieve convergence from 3.1875271461977673e-03 to 3.1875271461977773e-03 seconds.
Warning: Simulation tolerance relaxed to achieve convergence from 3.1875271461979469e-03 to 3.1875271461979568e-03 seconds.
Warning: Simulation tolerance relaxed to achieve convergence from 3.1875271461979668e-03 to 3.1875271461979768e-03 seconds.
Warning: Simulation tolerance relaxed to achieve convergence from 3.1875271461979768e-03 to 3.1875271461979868e-03 seconds.
Warning: Simulation tolerance relaxed to achieve convergence from 3.1875271461980167e-03 to 3.1875271461980267e-03 seconds.
Warning: Simulation tolerance relaxed to achieve convergence from 3.1875271461980366e-03 to 3.1875271461980466e-03 seconds.
Warning: Simulation tolerance relaxed to achieve convergence from 3.1875271461980466e-03 to 3.1875271461980566e-03 seconds.
Warning: Simulation tolerance relaxed to achieve convergence from 3.1875271461980765e-03 to 3.1875271461980865e-03 seconds.
Warning: Simulation tolerance relaxed to achieve convergence from 3.1875271461985753e-03 to 3.1875271461985853e-03 seconds.
Warning: Simulation tolerance relaxed to achieve convergence from 3.1875271461986950e-03 to 3.1875271461987049e-03 seconds.
Warning: Simulation tolerance relaxed to achieve convergence from 3.1875271461992735e-03 to 3.1875271461992835e-03 seconds.
Warning: Simulation tolerance relaxed to achieve convergence from 3.1875271461993433e-03 to 3.1875271461993533e-03 seconds.
Warning: Simulation tolerance relaxed to achieve convergence from 3.1875271461994032e-03 to 3.1875271461994131e-03 seconds.
Warning: Simulation tolerance relaxed to achieve convergence from 3.1875271461999717e-03 to 3.1875271461999817e-03 seconds.
Warning: Simulation tolerance relaxed to achieve convergence from 3.1875271462000116e-03 to 3.1875271462000216e-03 seconds.
Warning: Simulation tolerance relaxed to achieve convergence from 3.1875271462000216e-03 to 3.1875271462000316e-03 seconds.
Warning: Simulation tolerance relaxed to achieve convergence from 3.1875271462000316e-03 to 3.1875271462000416e-03 seconds.
Warning: Simulation tolerance relaxed to achieve convergence from 3.1875271462000615e-03 to 3.1875271462000715e-03 seconds.
Warning: Simulation tolerance relaxed to achieve convergence from 3.1875271462000715e-03 to 3.1875271462000815e-03 seconds.
Warning: Simulation tolerance relaxed to achieve convergence from 3.1875271462000815e-03 to 3.1875271462000914e-03 seconds.
Warning: Simulation tolerance relaxed to achieve convergence from 3.1875271462001114e-03 to 3.1875271462001213e-03 seconds.
Warning: Simulation tolerance relaxed to achieve convergence from 3.1875271462010590e-03 to 3.1875271462010689e-03 seconds.
Warning: Simulation tolerance relaxed to achieve convergence from 3.1875271462014280e-03 to 3.1875271462014380e-03 seconds.
Warning: Simulation tolerance relaxed to achieve convergence from 3.1875271462016275e-03 to 3.1875271462016375e-03 seconds.
Warning: Simulation tolerance relaxed to achieve convergence from 3.1875271462017771e-03 to 3.1875271462017871e-03 seconds.
Warning: Simulation tolerance relaxed to achieve convergence from 3.1875271462021362e-03 to 3.1875271462021462e-03 seconds.
Warning: Simulation tolerance relaxed to achieve convergence from 3.1875271462023058e-03 to 3.1875271462023158e-03 seconds.
Warning: Simulation tolerance relaxed to achieve convergence from 3.1875271462026848e-03 to 3.1875271462026948e-03 seconds.
Warning: Simulation tolerance relaxed to achieve convergence from 3.1875271462027247e-03 to 3.1875271462027347e-03 seconds.
Warning: Simulation tolerance relaxed to achieve convergence from 3.1875271462030938e-03 to 3.1875271462031038e-03 seconds.
Warning: Simulation tolerance relaxed to achieve convergence from 3.1875271462037322e-03 to 3.1875271462037422e-03 seconds.
Warning: Simulation tolerance relaxed to achieve convergence from 3.1875271462044105e-03 to 3.1875271462044204e-03 seconds.
Warning: Simulation tolerance relaxed to achieve convergence from 3.1875271462045002e-03 to 3.1875271462045102e-03 seconds.
Warning: Simulation tolerance relaxed to achieve convergence from 3.1875271462045501e-03 to 3.1875271462045601e-03 seconds.
Warning: Simulation tolerance relaxed to achieve convergence from 3.1875271462049990e-03 to 3.1875271462050089e-03 seconds.
Warning: Simulation tolerance relaxed to achieve convergence from 3.1875271462050588e-03 to 3.1875271462050688e-03 seconds.
Warning: Simulation tolerance relaxed to achieve convergence from 3.1875271462051586e-03 to 3.1875271462051685e-03 seconds.
Warning: Simulation tolerance relaxed to achieve convergence from 3.1875271462051985e-03 to 3.1875271462052084e-03 seconds.
Warning: Simulation tolerance relaxed to achieve convergence from 3.1875271462052782e-03 to 3.1875271462052882e-03 seconds.
Warning: Simulation tolerance relaxed to achieve convergence from 3.1875271462052882e-03 to 3.1875271462052982e-03 seconds.
Warning: Simulation tolerance relaxed to achieve convergence from 3.1875271462053780e-03 to 3.1875271462053880e-03 seconds.
Warning: Simulation tolerance relaxed to achieve convergence from 3.1875271462053880e-03 to 3.1875271462053979e-03 seconds.
Warning: Simulation tolerance relaxed to achieve convergence from 3.1875271462054378e-03 to 3.1875271462054478e-03 seconds.
Warning: Simulation tolerance relaxed to achieve convergence from 3.1875271462055176e-03 to 3.1875271462055276e-03 seconds.
Warning: Simulation tolerance relaxed to achieve convergence from 3.1875271462055974e-03 to 3.1875271462056074e-03 seconds.
Warning: Simulation tolerance relaxed to achieve convergence from 3.1875271462056074e-03 to 3.1875271462056174e-03 seconds.
Warning: Simulation tolerance relaxed to achieve convergence from 3.1875271462057670e-03 to 3.1875271462057770e-03 seconds.
Warning: Simulation tolerance relaxed to achieve convergence from 3.1875271462060762e-03 to 3.1875271462060862e-03 seconds.
Warning: Simulation tolerance relaxed to achieve convergence from 3.1875271462062657e-03 to 3.1875271462062757e-03 seconds.
Warning: Simulation tolerance relaxed to achieve convergence from 3.1875271462063555e-03 to 3.1875271462063655e-03 seconds.
Warning: Simulation tolerance relaxed to achieve convergence from 3.1875271462063755e-03 to 3.1875271462063854e-03 seconds.
Warning: Simulation tolerance relaxed to achieve convergence from 3.1875271462064752e-03 to 3.1875271462064852e-03 seconds.
Warning: Simulation tolerance relaxed to achieve convergence from 3.1875271462064952e-03 to 3.1875271462065051e-03 seconds.
Warning: Simulation tolerance relaxed to achieve convergence from 3.1875271462065151e-03 to 3.1875271462065251e-03 seconds.
Warning: Simulation tolerance relaxed to achieve convergence from 3.1875271462065650e-03 to 3.1875271462065750e-03 seconds.
Warning: Simulation tolerance relaxed to achieve convergence from 3.1875271462065750e-03 to 3.1875271462065849e-03 seconds.
Warning: Simulation tolerance relaxed to achieve convergence from 3.1875271462072931e-03 to 3.1875271462073031e-03 seconds.
Warning: Simulation tolerance relaxed to achieve convergence from 3.1875271462073530e-03 to 3.1875271462073630e-03 seconds.
Warning: Simulation tolerance relaxed to achieve convergence from 3.1875271462074029e-03 to 3.1875271462074128e-03 seconds.
Warning: Simulation tolerance relaxed to achieve convergence from 3.1875271462074128e-03 to 3.1875271462074228e-03 seconds.
Warning: Simulation tolerance relaxed to achieve convergence from 3.1875271462074228e-03 to 3.1875271462074328e-03 seconds.
Warning: Simulation tolerance relaxed to achieve convergence from 3.1875271462074826e-03 to 3.1875271462074926e-03 seconds.
Warning: Simulation tolerance relaxed to achieve convergence from 3.1875271462084402e-03 to 3.1875271462084502e-03 seconds.
Warning: Simulation tolerance relaxed to achieve convergence from 3.1875271462087295e-03 to 3.1875271462087395e-03 seconds.
Warning: Simulation tolerance relaxed to achieve convergence from 3.1875271462093080e-03 to 3.1875271462093180e-03 seconds.
Warning: Simulation tolerance relaxed to achieve convergence from 3.1875271462094975e-03 to 3.1875271462095075e-03 seconds.
Warning: Simulation tolerance relaxed to achieve convergence from 3.1875271462098067e-03 to 3.1875271462098167e-03 seconds.
Warning: Simulation tolerance relaxed to achieve convergence from 3.1875271462098766e-03 to 3.1875271462098865e-03 seconds.
Warning: Simulation tolerance relaxed to achieve convergence from 3.1875271462099364e-03 to 3.1875271462099464e-03 seconds.
Warning: Simulation tolerance relaxed to achieve convergence from 3.1875271462101359e-03 to 3.1875271462101459e-03 seconds.
Warning: Simulation tolerance relaxed to achieve convergence from 3.1875271462111034e-03 to 3.1875271462111134e-03 seconds.
Warning: Simulation tolerance relaxed to achieve convergence from 3.1875271462113129e-03 to 3.1875271462113229e-03 seconds.
Warning: Simulation tolerance relaxed to achieve convergence from 3.1875271462115124e-03 to 3.1875271462115224e-03 seconds.
Warning: Simulation tolerance relaxed to achieve convergence from 3.1875271462115224e-03 to 3.1875271462115324e-03 seconds.
Warning: Simulation tolerance relaxed to achieve convergence from 3.1875271462117418e-03 to 3.1875271462117518e-03 seconds.
Warning: Simulation tolerance relaxed to achieve convergence from 3.1875271462121707e-03 to 3.1875271462121807e-03 seconds.
Warning: Simulation tolerance relaxed to achieve convergence from 3.1875271462127393e-03 to 3.1875271462127493e-03 seconds.
Warning: Simulation tolerance relaxed to achieve convergence from 3.1875271462128690e-03 to 3.1875271462128789e-03 seconds.
Warning: Simulation tolerance relaxed to achieve convergence from 3.1875271462129089e-03 to 3.1875271462129188e-03 seconds.
Warning: Simulation tolerance relaxed to achieve convergence from 3.1875271462129388e-03 to 3.1875271462129488e-03 seconds.
Warning: Simulation tolerance relaxed to achieve convergence from 3.1875271462129986e-03 to 3.1875271462130086e-03 seconds.
Warning: Simulation tolerance relaxed to achieve convergence from 3.1875271462130485e-03 to 3.1875271462130585e-03 seconds.
Warning: Simulation tolerance relaxed to achieve convergence from 3.1875271462134375e-03 to 3.1875271462134475e-03 seconds.
Warning: Simulation tolerance relaxed to achieve convergence from 3.1875271462136669e-03 to 3.1875271462136769e-03 seconds.
Warning: Simulation tolerance relaxed to achieve convergence from 3.1875271462138365e-03 to 3.1875271462138465e-03 seconds.
Warning: Simulation tolerance relaxed to achieve convergence from 3.1875271462140958e-03 to 3.1875271462141058e-03 seconds.
Warning: Simulation tolerance relaxed to achieve convergence from 3.1875271462142953e-03 to 3.1875271462143053e-03 seconds.
Warning: Simulation tolerance relaxed to achieve convergence from 3.1875271462143452e-03 to 3.1875271462143552e-03 seconds.
Warning: Simulation tolerance relaxed to achieve convergence from 3.1875271462155322e-03 to 3.1875271462155422e-03 seconds.
Warning: Simulation tolerance relaxed to achieve convergence from 3.1875271462156818e-03 to 3.1875271462156918e-03 seconds.
Warning: Simulation tolerance relaxed to achieve convergence from 3.1875271462157816e-03 to 3.1875271462157915e-03 seconds.
Warning: Simulation tolerance relaxed to achieve convergence from 3.1875271462158813e-03 to 3.1875271462158913e-03 seconds.
Warning: Simulation tolerance relaxed to achieve convergence from 3.1875271462164100e-03 to 3.1875271462164199e-03 seconds.
Warning: Simulation tolerance relaxed to achieve convergence from 3.1875271462164199e-03 to 3.1875271462164299e-03 seconds.
Warning: Simulation tolerance relaxed to achieve convergence from 3.1875271462166095e-03 to 3.1875271462166194e-03 seconds.
Warning: Simulation tolerance relaxed to achieve convergence from 3.1875271462168090e-03 to 3.1875271462168189e-03 seconds.
Warning: Simulation tolerance relaxed to achieve convergence from 3.1875271462168489e-03 to 3.1875271462168588e-03 seconds.
Warning: Simulation tolerance relaxed to achieve convergence from 3.1875271462171281e-03 to 3.1875271462171381e-03 seconds.
Warning: Simulation tolerance relaxed to achieve convergence from 3.1875271462173675e-03 to 3.1875271462173775e-03 seconds.
Warning: Simulation tolerance relaxed to achieve convergence from 3.1875271462174972e-03 to 3.1875271462175072e-03 seconds.
Warning: Simulation tolerance relaxed to achieve convergence from 3.1875271462175072e-03 to 3.1875271462175172e-03 seconds.
Warning: Simulation tolerance relaxed to achieve convergence from 3.1875271462175371e-03 to 3.1875271462175471e-03 seconds.
Warning: Simulation tolerance relaxed to achieve convergence from 3.1875271462175471e-03 to 3.1875271462175571e-03 seconds.
Warning: Simulation tolerance relaxed to achieve convergence from 3.1875271462176269e-03 to 3.1875271462176369e-03 seconds.
Warning: Simulation tolerance relaxed to achieve convergence from 3.1875271462179361e-03 to 3.1875271462179461e-03 seconds.
Warning: Simulation tolerance relaxed to achieve convergence from 3.1875271462179461e-03 to 3.1875271462179560e-03 seconds.
Warning: Simulation tolerance relaxed to achieve convergence from 3.1875271462179760e-03 to 3.1875271462179860e-03 seconds.
Warning: Simulation tolerance relaxed to achieve convergence from 3.1875271462180458e-03 to 3.1875271462180558e-03 seconds.
Warning: Simulation tolerance relaxed to achieve convergence from 3.1875271462182653e-03 to 3.1875271462182752e-03 seconds.
Warning: Simulation tolerance relaxed to achieve convergence from 3.1875271462187640e-03 to 3.1875271462187740e-03 seconds.
Warning: Simulation tolerance relaxed to achieve convergence from 3.1875271462187740e-03 to 3.1875271462187839e-03 seconds.
Warning: Simulation tolerance relaxed to achieve convergence from 3.1875271462187939e-03 to 3.1875271462188039e-03 seconds.
Warning: Simulation tolerance relaxed to achieve convergence from 3.1875271462189834e-03 to 3.1875271462189934e-03 seconds.
Warning: Simulation tolerance relaxed to achieve convergence from 3.1875271462191331e-03 to 3.1875271462191430e-03 seconds.
Warning: Simulation tolerance relaxed to achieve convergence from 3.1875271462192328e-03 to 3.1875271462192428e-03 seconds.
Warning: Simulation tolerance relaxed to achieve convergence from 3.1875271462194423e-03 to 3.1875271462194522e-03 seconds.
Warning: Simulation tolerance relaxed to achieve convergence from 3.1875271462194522e-03 to 3.1875271462194622e-03 seconds.
Warning: Simulation tolerance relaxed to achieve convergence from 3.1875271462208786e-03 to 3.1875271462208886e-03 seconds.
Warning: Simulation tolerance relaxed to achieve convergence from 3.1875271462209684e-03 to 3.1875271462209784e-03 seconds.
Warning: Simulation tolerance relaxed to achieve convergence from 3.1875271462217763e-03 to 3.1875271462217863e-03 seconds.
Warning: Simulation tolerance relaxed to achieve convergence from 3.1875271462219060e-03 to 3.1875271462219160e-03 seconds.
Warning: Simulation tolerance relaxed to achieve convergence from 3.1875271462220756e-03 to 3.1875271462220856e-03 seconds.
Warning: Simulation tolerance relaxed to achieve convergence from 3.1875271462222551e-03 to 3.1875271462222651e-03 seconds.
Warning: Simulation tolerance relaxed to achieve convergence from 3.1875271462222651e-03 to 3.1875271462222751e-03 seconds.
Warning: Simulation tolerance relaxed to achieve convergence from 3.1875271462222850e-03 to 3.1875271462222950e-03 seconds.
Warning: Simulation tolerance relaxed to achieve convergence from 3.1875271462226741e-03 to 3.1875271462226840e-03 seconds.
Warning: Simulation tolerance relaxed to achieve convergence from 3.1875271462226840e-03 to 3.1875271462226940e-03 seconds.
Warning: Simulation tolerance relaxed to achieve convergence from 3.1875271462228835e-03 to 3.1875271462228935e-03 seconds.
Warning: Simulation tolerance relaxed to achieve convergence from 3.1875271462230032e-03 to 3.1875271462230132e-03 seconds.
Warning: Simulation tolerance relaxed to achieve convergence from 3.1875271462230331e-03 to 3.1875271462230431e-03 seconds.
Warning: Simulation tolerance relaxed to achieve convergence from 3.1875271462230631e-03 to 3.1875271462230730e-03 seconds.
Warning: Simulation tolerance relaxed to achieve convergence from 3.1875271462230930e-03 to 3.1875271462231030e-03 seconds.
Warning: Simulation tolerance relaxed to achieve convergence from 3.1875271462232426e-03 to 3.1875271462232526e-03 seconds.
Warning: Simulation tolerance relaxed to achieve convergence from 3.1875271462234621e-03 to 3.1875271462234720e-03 seconds.
Warning: Simulation tolerance relaxed to achieve convergence from 3.1875271462234920e-03 to 3.1875271462235020e-03 seconds.
Warning: Simulation tolerance relaxed to achieve convergence from 3.1875271462235119e-03 to 3.1875271462235219e-03 seconds.
Warning: Simulation tolerance relaxed to achieve convergence from 3.1875271462235718e-03 to 3.1875271462235817e-03 seconds.
Warning: Simulation tolerance relaxed to achieve convergence from 3.1875271462235817e-03 to 3.1875271462235917e-03 seconds.
Warning: Simulation tolerance relaxed to achieve convergence from 3.1875271462235917e-03 to 3.1875271462236017e-03 seconds.
Warning: Simulation tolerance relaxed to achieve convergence from 3.1875271462236017e-03 to 3.1875271462236117e-03 seconds.
Warning: Simulation tolerance relaxed to achieve convergence from 3.1875271462236416e-03 to 3.1875271462236516e-03 seconds.
Warning: Simulation tolerance relaxed to achieve convergence from 3.1875271462237014e-03 to 3.1875271462237114e-03 seconds.
Warning: Simulation tolerance relaxed to achieve convergence from 3.1875271462237513e-03 to 3.1875271462237613e-03 seconds.
Warning: Simulation tolerance relaxed to achieve convergence from 3.1875271462237613e-03 to 3.1875271462237713e-03 seconds.
Warning: Simulation tolerance relaxed to achieve convergence from 3.1875271462237912e-03 to 3.1875271462238012e-03 seconds.
Warning: Simulation tolerance relaxed to achieve convergence from 3.1875271462238112e-03 to 3.1875271462238211e-03 seconds.
Warning: Simulation tolerance relaxed to achieve convergence from 3.1875271462238211e-03 to 3.1875271462238311e-03 seconds.
Warning: Simulation tolerance relaxed to achieve convergence from 3.1875271462238311e-03 to 3.1875271462238411e-03 seconds.
Warning: Simulation tolerance relaxed to achieve convergence from 3.1875271462238411e-03 to 3.1875271462238511e-03 seconds.
Warning: Simulation tolerance relaxed to achieve convergence from 3.1875271462238511e-03 to 3.1875271462238610e-03 seconds.
Warning: Simulation tolerance relaxed to achieve convergence from 3.1875271462238610e-03 to 3.1875271462238710e-03 seconds.
Warning: Simulation tolerance relaxed to achieve convergence from 3.1875271462238710e-03 to 3.1875271462238810e-03 seconds.
Warning: Simulation tolerance relaxed to achieve convergence from 3.1875271462238910e-03 to 3.1875271462239009e-03 seconds.
Warning: Simulation tolerance relaxed to achieve convergence from 3.1875271462239009e-03 to 3.1875271462239109e-03 seconds.
Warning: Simulation tolerance relaxed to achieve convergence from 3.1875271462239109e-03 to 3.1875271462239209e-03 seconds.
Warning: Simulation tolerance relaxed to achieve convergence from 3.1875271462239309e-03 to 3.1875271462239408e-03 seconds.
Warning: Simulation tolerance relaxed to achieve convergence from 3.1875271462239408e-03 to 3.1875271462239508e-03 seconds.
Warning: Simulation tolerance relaxed to achieve convergence from 3.1875271462239508e-03 to 3.1875271462239608e-03 seconds.
Warning: Simulation tolerance relaxed to achieve convergence from 3.1875271462239608e-03 to 3.1875271462239708e-03 seconds.
Warning: Simulation tolerance relaxed to achieve convergence from 3.1875271462239807e-03 to 3.1875271462239907e-03 seconds.
Warning: Simulation tolerance relaxed to achieve convergence from 3.1875271462240107e-03 to 3.1875271462240206e-03 seconds.
Warning: Simulation tolerance relaxed to achieve convergence from 3.1875271462240206e-03 to 3.1875271462240306e-03 seconds.
Warning: Simulation tolerance relaxed to achieve convergence from 3.1875271462240605e-03 to 3.1875271462240705e-03 seconds.
Warning: Simulation tolerance relaxed to achieve convergence from 3.1875271462240805e-03 to 3.1875271462240905e-03 seconds.
Warning: Simulation tolerance relaxed to achieve convergence from 3.1875271462241104e-03 to 3.1875271462241204e-03 seconds.
Warning: Simulation tolerance relaxed to achieve convergence from 3.1875271462241204e-03 to 3.1875271462241304e-03 seconds.
Warning: Simulation tolerance relaxed to achieve convergence from 3.1875271462241304e-03 to 3.1875271462241403e-03 seconds.
Warning: Simulation tolerance relaxed to achieve convergence from 3.1875271462241403e-03 to 3.1875271462241503e-03 seconds.
Warning: Simulation tolerance relaxed to achieve convergence from 3.1875271462241503e-03 to 3.1875271462241603e-03 seconds.
Warning: Simulation tolerance relaxed to achieve convergence from 3.1875271462241703e-03 to 3.1875271462241802e-03 seconds.
Warning: Simulation tolerance relaxed to achieve convergence from 3.1875271462242002e-03 to 3.1875271462242102e-03 seconds.
Warning: Simulation tolerance relaxed to achieve convergence from 3.1875271462242201e-03 to 3.1875271462242301e-03 seconds.
Warning: Simulation tolerance relaxed to achieve convergence from 3.1875271462242401e-03 to 3.1875271462242501e-03 seconds.
Warning: Simulation tolerance relaxed to achieve convergence from 3.1875271462243199e-03 to 3.1875271462243298e-03 seconds.
Warning: Simulation tolerance relaxed to achieve convergence from 3.1875271462243298e-03 to 3.1875271462243398e-03 seconds.
Warning: Simulation tolerance relaxed to achieve convergence from 3.1875271462243598e-03 to 3.1875271462243697e-03 seconds.
Warning: Simulation tolerance relaxed to achieve convergence from 3.1875271462243697e-03 to 3.1875271462243797e-03 seconds.
Warning: Simulation tolerance relaxed to achieve convergence from 3.1875271462243897e-03 to 3.1875271462243997e-03 seconds.
Warning: Simulation tolerance relaxed to achieve convergence from 3.1875271462243997e-03 to 3.1875271462244096e-03 seconds.
Warning: Simulation tolerance relaxed to achieve convergence from 3.1875271462244196e-03 to 3.1875271462244296e-03 seconds.
Warning: Simulation tolerance relaxed to achieve convergence from 3.1875271462244296e-03 to 3.1875271462244396e-03 seconds.
Warning: Simulation tolerance relaxed to achieve convergence from 3.1875271462244396e-03 to 3.1875271462244495e-03 seconds.
Warning: Simulation tolerance relaxed to achieve convergence from 3.1875271462244795e-03 to 3.1875271462244894e-03 seconds.
Warning: Simulation tolerance relaxed to achieve convergence from 3.1875271462244894e-03 to 3.1875271462244994e-03 seconds.
Warning: Simulation tolerance relaxed to achieve convergence from 3.1875271462245293e-03 to 3.1875271462245393e-03 seconds.
Warning: Simulation tolerance relaxed to achieve convergence from 3.1875271462245393e-03 to 3.1875271462245493e-03 seconds.
Warning: Simulation tolerance relaxed to achieve convergence from 3.1875271462245792e-03 to 3.1875271462245892e-03 seconds.
Warning: Simulation tolerance relaxed to achieve convergence from 3.1875271462245892e-03 to 3.1875271462245992e-03 seconds.
[...]
Warning: Simulation tolerance relaxed to achieve convergence from 3.1875271466207029e-03 to 3.1875271466207129e-03 seconds.
Warning: Simulation tolerance relaxed to achieve convergence from 3.1875271466207129e-03 to 3.1875271466207228e-03 seconds.
Warning: Simulation tolerance relaxed to achieve convergence from 3.1875271466207228e-03 to 3.1875271466207328e-03 seconds.
Warning: Simulation tolerance relaxed to achieve convergence from 3.1875271466207627e-03 to 3.1875271466207727e-03 seconds.
Warning: Simulation tolerance relaxed to achieve convergence from 3.1875271466207727e-03 to 3.1875271466207827e-03 seconds.
Warning: Simulation tolerance relaxed to achieve convergence from 3.1875271466208026e-03 to 3.1875271466208126e-03 seconds.
Warning: Simulation tolerance relaxed to achieve convergence from 3.1875271466208126e-03 to 3.1875271466208226e-03 seconds.
Warning: Simulation tolerance relaxed to achieve convergence from 3.1875271466208425e-03 to 3.1875271466208525e-03 seconds.
Warning: Simulation tolerance relaxed to achieve convergence from 3.1875271466208625e-03 to 3.1875271466208725e-03 seconds.
Warning: Simulation tolerance relaxed to achieve convergence from 3.1875271466208824e-03 to 3.1875271466208924e-03 seconds.
Warning: Simulation tolerance relaxed to achieve convergence from 3.1875271466209024e-03 to 3.1875271466209124e-03 seconds.
Warning: Simulation tolerance relaxed to achieve convergence from 3.1875271466209124e-03 to 3.1875271466209223e-03 seconds.
Warning: Simulation tolerance relaxed to achieve convergence from 3.1875271466209223e-03 to 3.1875271466209323e-03 seconds.
Warning: Simulation tolerance relaxed to achieve convergence from 3.1875271466209323e-03 to 3.1875271466209423e-03 seconds.
Warning: Simulation tolerance relaxed to achieve convergence from 3.1875271466209423e-03 to 3.1875271466209523e-03 seconds.
Warning: Simulation tolerance relaxed to achieve convergence from 3.1875271466212914e-03 to 3.1875271466213014e-03 seconds.
Warning: Simulation tolerance relaxed to achieve convergence from 3.1875271466213213e-03 to 3.1875271466213313e-03 seconds.
Warning: Simulation tolerance relaxed to achieve convergence from 3.1875271466213413e-03 to 3.1875271466213512e-03 seconds.
Warning: Simulation tolerance relaxed to achieve convergence from 3.1875271466215208e-03 to 3.1875271466215308e-03 seconds.
Warning: Simulation tolerance relaxed to achieve convergence from 3.1875271466215408e-03 to 3.1875271466215507e-03 seconds.
Warning: Simulation tolerance relaxed to achieve convergence from 3.1875271466215507e-03 to 3.1875271466215607e-03 seconds.
Warning: Simulation tolerance relaxed to achieve convergence from 3.1875271466215607e-03 to 3.1875271466215707e-03 seconds.
Warning: Simulation tolerance relaxed to achieve convergence from 3.1875271466215707e-03 to 3.1875271466215807e-03 seconds.
Warning: Simulation tolerance relaxed to achieve convergence from 3.1875271466216006e-03 to 3.1875271466216106e-03 seconds.
Warning: Simulation tolerance relaxed to achieve convergence from 3.1875271466216106e-03 to 3.1875271466216206e-03 seconds.
Warning: Simulation tolerance relaxed to achieve convergence from 3.1875271466216206e-03 to 3.1875271466216305e-03 seconds.
Warning: Simulation tolerance relaxed to achieve convergence from 3.1875271466216405e-03 to 3.1875271466216505e-03 seconds.
Warning: Simulation tolerance relaxed to achieve convergence from 3.1875271466216605e-03 to 3.1875271466216704e-03 seconds.
Warning: Simulation tolerance relaxed to achieve convergence from 3.1875271466216804e-03 to 3.1875271466216904e-03 seconds.
Warning: Simulation tolerance relaxed to achieve convergence from 3.1875271466217103e-03 to 3.1875271466217203e-03 seconds.
Warning: Simulation tolerance relaxed to achieve convergence from 3.1875271466217502e-03 to 3.1875271466217602e-03 seconds.
Warning: Simulation tolerance relaxed to achieve convergence from 3.1875271466221592e-03 to 3.1875271466221692e-03 seconds.
Warning: Simulation tolerance relaxed to achieve convergence from 3.1875271466221692e-03 to 3.1875271466221791e-03 seconds.
Warning: Simulation tolerance relaxed to achieve convergence from 3.1875271466221791e-03 to 3.1875271466221891e-03 seconds.
Warning: Simulation tolerance relaxed to achieve convergence from 3.1875271466221891e-03 to 3.1875271466221991e-03 seconds.
Warning: Simulation tolerance relaxed to achieve convergence from 3.1875271466222091e-03 to 3.1875271466222190e-03 seconds.
Warning: Simulation tolerance relaxed to achieve convergence from 3.1875271466222190e-03 to 3.1875271466222290e-03 seconds.
Warning: Simulation tolerance relaxed to achieve convergence from 3.1875271466227078e-03 to 3.1875271466227178e-03 seconds.
Warning: Simulation tolerance relaxed to achieve convergence from 3.1875271466227377e-03 to 3.1875271466227477e-03 seconds.
Warning: Simulation tolerance relaxed to achieve convergence from 3.1875271466227577e-03 to 3.1875271466227676e-03 seconds.
Warning: Simulation tolerance relaxed to achieve convergence from 3.1875271466228275e-03 to 3.1875271466228375e-03 seconds.
Warning: Simulation tolerance relaxed to achieve convergence from 3.1875271466228375e-03 to 3.1875271466228474e-03 seconds.
Warning: Simulation tolerance relaxed to achieve convergence from 3.1875271466228873e-03 to 3.1875271466228973e-03 seconds.
Warning: Simulation tolerance relaxed to achieve convergence from 3.1875271466231567e-03 to 3.1875271466231666e-03 seconds.
Warning: Simulation tolerance relaxed to achieve convergence from 3.1875271466237651e-03 to 3.1875271466237751e-03 seconds.
Warning: Simulation tolerance relaxed to achieve convergence from 3.1875271466237751e-03 to 3.1875271466237851e-03 seconds.
Warning: Simulation tolerance relaxed to achieve convergence from 3.1875271466237851e-03 to 3.1875271466237950e-03 seconds.
Warning: Simulation tolerance relaxed to achieve convergence from 3.1875271466260792e-03 to 3.1875271466260892e-03 seconds.
Warning: Simulation tolerance relaxed to achieve convergence from 3.1875271466266179e-03 to 3.1875271466266278e-03 seconds.
Warning: Simulation tolerance relaxed to achieve convergence from 3.1875271466282338e-03 to 3.1875271466282437e-03 seconds.
Warning: Simulation tolerance relaxed to achieve convergence from 3.1875271466298098e-03 to 3.1875271466298197e-03 seconds.
Warning: Simulation tolerance relaxed to achieve convergence from 3.1875271466299294e-03 to 3.1875271466299394e-03 seconds.
Warning: Simulation tolerance relaxed to achieve convergence from 3.1875271466299793e-03 to 3.1875271466299893e-03 seconds.
Warning: Simulation tolerance relaxed to achieve convergence from 3.1875271466300591e-03 to 3.1875271466300691e-03 seconds.
Warning: Simulation tolerance relaxed to achieve convergence from 3.1875271466301090e-03 to 3.1875271466301190e-03 seconds.
Warning: Simulation tolerance relaxed to achieve convergence from 3.1875271466309169e-03 to 3.1875271466309269e-03 seconds.
Warning: Simulation tolerance relaxed to achieve convergence from 3.1875271466316052e-03 to 3.1875271466316152e-03 seconds.
Warning: Simulation tolerance relaxed to achieve convergence from 3.1875271466378693e-03 to 3.1875271466378793e-03 seconds.
Warning: Simulation tolerance relaxed to achieve convergence from 3.1875271466378992e-03 to 3.1875271466379092e-03 seconds.
Warning: Simulation tolerance relaxed to achieve convergence from 3.1875271466380688e-03 to 3.1875271466380787e-03 seconds.
Warning: Simulation tolerance relaxed to achieve convergence from 3.1875271466381386e-03 to 3.1875271466381486e-03 seconds.
Warning: Simulation tolerance relaxed to achieve convergence from 3.1875271466382284e-03 to 3.1875271466382383e-03 seconds.
Warning: Simulation tolerance relaxed to achieve convergence from 3.1875271466383780e-03 to 3.1875271466383880e-03 seconds.
Warning: Simulation tolerance relaxed to achieve convergence from 3.1875271466396348e-03 to 3.1875271466396448e-03 seconds.
Warning: Simulation tolerance relaxed to achieve convergence from 3.1875271466421285e-03 to 3.1875271466421384e-03 seconds.
Warning: Simulation tolerance relaxed to achieve convergence from 3.1875271466436346e-03 to 3.1875271466436446e-03 seconds.
Warning: Simulation tolerance relaxed to achieve convergence from 3.1875271466506069e-03 to 3.1875271466506169e-03 seconds.
Warning: Simulation tolerance relaxed to achieve convergence from 3.1875271466506468e-03 to 3.1875271466506568e-03 seconds.
Warning: Simulation tolerance relaxed to achieve convergence from 3.1875271466515146e-03 to 3.1875271466515246e-03 seconds.
Warning: Simulation tolerance relaxed to achieve convergence from 3.1875271466528612e-03 to 3.1875271466528712e-03 seconds.
Warning: Simulation tolerance relaxed to achieve convergence from 3.1875271466530407e-03 to 3.1875271466530507e-03 seconds.
Warning: Simulation tolerance relaxed to achieve convergence from 3.1875271466546068e-03 to 3.1875271466546167e-03 seconds.
Warning: Simulation tolerance relaxed to achieve convergence from 3.1875271466546167e-03 to 3.1875271466546267e-03 seconds.
Warning: Simulation tolerance relaxed to achieve convergence from 3.1875271466546367e-03 to 3.1875271466546467e-03 seconds.
Warning: Simulation tolerance relaxed to achieve convergence from 3.1875271466546566e-03 to 3.1875271466546666e-03 seconds.
Warning: Simulation tolerance relaxed to achieve convergence from 3.1875271466547364e-03 to 3.1875271466547464e-03 seconds.
Warning: Simulation tolerance relaxed to achieve convergence from 3.1875271466547963e-03 to 3.1875271466548062e-03 seconds.
Warning: Simulation tolerance relaxed to achieve convergence from 3.1875271466549559e-03 to 3.1875271466549658e-03 seconds.
Warning: Simulation tolerance relaxed to achieve convergence from 3.1875271466549758e-03 to 3.1875271466549858e-03 seconds.
Warning: Simulation tolerance relaxed to achieve convergence from 3.1875271466555244e-03 to 3.1875271466555344e-03 seconds.
Warning: Simulation tolerance relaxed to achieve convergence from 3.1875271466555444e-03 to 3.1875271466555543e-03 seconds.
Warning: Simulation tolerance relaxed to achieve convergence from 3.1875271466555543e-03 to 3.1875271466555643e-03 seconds.
Warning: Simulation tolerance relaxed to achieve convergence from 3.1875271466555843e-03 to 3.1875271466555942e-03 seconds.
Warning: Simulation tolerance relaxed to achieve convergence from 3.1875271466562526e-03 to 3.1875271466562625e-03 seconds.
Warning: Simulation tolerance relaxed to achieve convergence from 3.1875271466564022e-03 to 3.1875271466564122e-03 seconds.
Warning: Simulation tolerance relaxed to achieve convergence from 3.1875271466564221e-03 to 3.1875271466564321e-03 seconds.
Warning: Simulation tolerance relaxed to achieve convergence from 3.1875271466566117e-03 to 3.1875271466566216e-03 seconds.
Warning: Simulation tolerance relaxed to achieve convergence from 3.1875271466566815e-03 to 3.1875271466566915e-03 seconds.
Warning: Simulation tolerance relaxed to achieve convergence from 3.1875271466566915e-03 to 3.1875271466567014e-03 seconds.
Warning: Simulation tolerance relaxed to achieve convergence from 3.1875271466567513e-03 to 3.1875271466567613e-03 seconds.
Warning: Simulation tolerance relaxed to achieve convergence from 3.1875271466567613e-03 to 3.1875271466567713e-03 seconds.
Warning: Simulation tolerance relaxed to achieve convergence from 3.1875271466567812e-03 to 3.1875271466567912e-03 seconds.
Warning: Simulation tolerance relaxed to achieve convergence from 3.1875271466570705e-03 to 3.1875271466570805e-03 seconds.
Warning: Simulation tolerance relaxed to achieve convergence from 3.1875271466570805e-03 to 3.1875271466570904e-03 seconds.
Warning: Simulation tolerance relaxed to achieve convergence from 3.1875271466571503e-03 to 3.1875271466571603e-03 seconds.
Warning: Simulation tolerance relaxed to achieve convergence from 3.1875271466571902e-03 to 3.1875271466572002e-03 seconds.
Warning: Simulation tolerance relaxed to achieve convergence from 3.1875271466572002e-03 to 3.1875271466572101e-03 seconds.
Warning: Simulation tolerance relaxed to achieve convergence from 3.1875271466572101e-03 to 3.1875271466572201e-03 seconds.
Warning: Simulation tolerance relaxed to achieve convergence from 3.1875271466572500e-03 to 3.1875271466572600e-03 seconds.
Warning: Simulation tolerance relaxed to achieve convergence from 3.1875271466572700e-03 to 3.1875271466572800e-03 seconds.
Warning: Simulation tolerance relaxed to achieve convergence from 3.1875271466573498e-03 to 3.1875271466573598e-03 seconds.
Warning: Simulation tolerance relaxed to achieve convergence from 3.1875271466573697e-03 to 3.1875271466573797e-03 seconds.
Warning: Simulation tolerance relaxed to achieve convergence from 3.1875271466573797e-03 to 3.1875271466573897e-03 seconds.
Warning: Simulation tolerance relaxed to achieve convergence from 3.1875271466573997e-03 to 3.1875271466574096e-03 seconds.
Warning: Simulation tolerance relaxed to achieve convergence from 3.1875271466574296e-03 to 3.1875271466574396e-03 seconds.
Warning: Simulation tolerance relaxed to achieve convergence from 3.1875271466574396e-03 to 3.1875271466574495e-03 seconds.
Warning: Simulation tolerance relaxed to achieve convergence from 3.1875271466574495e-03 to 3.1875271466574595e-03 seconds.
Warning: Simulation tolerance relaxed to achieve convergence from 3.1875271466574595e-03 to 3.1875271466574695e-03 seconds.
Warning: Simulation tolerance relaxed to achieve convergence from 3.1875271466575593e-03 to 3.1875271466575692e-03 seconds.
Warning: Simulation tolerance relaxed to achieve convergence from 3.1875271466575992e-03 to 3.1875271466576091e-03 seconds.
Warning: Simulation tolerance relaxed to achieve convergence from 3.1875271466576191e-03 to 3.1875271466576291e-03 seconds.
Warning: Simulation tolerance relaxed to achieve convergence from 3.1875271466576291e-03 to 3.1875271466576391e-03 seconds.
Warning: Simulation tolerance relaxed to achieve convergence from 3.1875271466576490e-03 to 3.1875271466576590e-03 seconds.
Warning: Simulation tolerance relaxed to achieve convergence from 3.1875271466576590e-03 to 3.1875271466576690e-03 seconds.
Warning: Simulation tolerance relaxed to achieve convergence from 3.1875271466576790e-03 to 3.1875271466576889e-03 seconds.
Warning: Simulation tolerance relaxed to achieve convergence from 3.1875271466577089e-03 to 3.1875271466577189e-03 seconds.
Warning: Simulation tolerance relaxed to achieve convergence from 3.1875271466577189e-03 to 3.1875271466577288e-03 seconds.
Warning: Simulation tolerance relaxed to achieve convergence from 3.1875271466577488e-03 to 3.1875271466577587e-03 seconds.
Warning: Simulation tolerance relaxed to achieve convergence from 3.1875271466577587e-03 to 3.1875271466577687e-03 seconds.
Warning: Simulation tolerance relaxed to achieve convergence from 3.1875271466577687e-03 to 3.1875271466577787e-03 seconds.
Warning: Simulation tolerance relaxed to achieve convergence from 3.1875271466577787e-03 to 3.1875271466577887e-03 seconds.
Warning: Simulation tolerance relaxed to achieve convergence from 3.1875271466577887e-03 to 3.1875271466577986e-03 seconds.
Warning: Simulation tolerance relaxed to achieve convergence from 3.1875271466577986e-03 to 3.1875271466578086e-03 seconds.
Warning: Simulation tolerance relaxed to achieve convergence from 3.1875271466578186e-03 to 3.1875271466578286e-03 seconds.
Warning: Simulation tolerance relaxed to achieve convergence from 3.1875271466578485e-03 to 3.1875271466578585e-03 seconds.
Warning: Simulation tolerance relaxed to achieve convergence from 3.1875271466578585e-03 to 3.1875271466578685e-03 seconds.
Warning: Simulation tolerance relaxed to achieve convergence from 3.1875271466578685e-03 to 3.1875271466578784e-03 seconds.
Warning: Simulation tolerance relaxed to achieve convergence from 3.1875271466578784e-03 to 3.1875271466578884e-03 seconds.
Warning: Simulation tolerance relaxed to achieve convergence from 3.1875271466578884e-03 to 3.1875271466578984e-03 seconds.
Warning: Simulation tolerance relaxed to achieve convergence from 3.1875271466578984e-03 to 3.1875271466579084e-03 seconds.
Warning: Simulation tolerance relaxed to achieve convergence from 3.1875271466579084e-03 to 3.1875271466579183e-03 seconds.
Warning: Simulation tolerance relaxed to achieve convergence from 3.1875271466579183e-03 to 3.1875271466579283e-03 seconds.
Warning: Simulation tolerance relaxed to achieve convergence from 3.1875271466579283e-03 to 3.1875271466579383e-03 seconds.
Warning: Simulation tolerance relaxed to achieve convergence from 3.1875271466579383e-03 to 3.1875271466579483e-03 seconds.
Warning: Simulation tolerance relaxed to achieve convergence from 3.1875271466579483e-03 to 3.1875271466579582e-03 seconds.
Warning: Simulation tolerance relaxed to achieve convergence from 3.1875271466579582e-03 to 3.1875271466579682e-03 seconds.
Warning: Simulation tolerance relaxed to achieve convergence from 3.1875271466579682e-03 to 3.1875271466579782e-03 seconds.
Warning: Simulation tolerance relaxed to achieve convergence from 3.1875271466579782e-03 to 3.1875271466579882e-03 seconds.
Warning: Simulation tolerance relaxed to achieve convergence from 3.1875271466579882e-03 to 3.1875271466579981e-03 seconds.
Warning: Simulation tolerance relaxed to achieve convergence from 3.1875271466580480e-03 to 3.1875271466580580e-03 seconds.
Warning: Simulation tolerance relaxed to achieve convergence from 3.1875271466580580e-03 to 3.1875271466580680e-03 seconds.
Warning: Simulation tolerance relaxed to achieve convergence from 3.1875271466580779e-03 to 3.1875271466580879e-03 seconds.
Warning: Simulation tolerance relaxed to achieve convergence from 3.1875271466580879e-03 to 3.1875271466580979e-03 seconds.
Warning: Simulation tolerance relaxed to achieve convergence from 3.1875271466580979e-03 to 3.1875271466581079e-03 seconds.
Warning: Simulation tolerance relaxed to achieve convergence from 3.1875271466581079e-03 to 3.1875271466581178e-03 seconds.
Warning: Simulation tolerance relaxed to achieve convergence from 3.1875271466581378e-03 to 3.1875271466581478e-03 seconds.
Warning: Simulation tolerance relaxed to achieve convergence from 3.1875271466581577e-03 to 3.1875271466581677e-03 seconds.
Warning: Simulation tolerance relaxed to achieve convergence from 3.1875271466582176e-03 to 3.1875271466582276e-03 seconds.
Warning: Simulation tolerance relaxed to achieve convergence from 3.1875271466582774e-03 to 3.1875271466582874e-03 seconds.
Warning: Simulation tolerance relaxed to achieve convergence from 3.1875271466583173e-03 to 3.1875271466583273e-03 seconds.
Warning: Simulation tolerance relaxed to achieve convergence from 3.1875271466583473e-03 to 3.1875271466583572e-03 seconds.
Warning: Simulation tolerance relaxed to achieve convergence from 3.1875271466583572e-03 to 3.1875271466583672e-03 seconds.
Warning: Simulation tolerance relaxed to achieve convergence from 3.1875271466583672e-03 to 3.1875271466583772e-03 seconds.
Warning: Simulation tolerance relaxed to achieve convergence from 3.1875271466584071e-03 to 3.1875271466584171e-03 seconds.
Warning: Simulation tolerance relaxed to achieve convergence from 3.1875271466584271e-03 to 3.1875271466584370e-03 seconds.
Warning: Simulation tolerance relaxed to achieve convergence from 3.1875271466585467e-03 to 3.1875271466585567e-03 seconds.
Warning: Simulation tolerance relaxed to achieve convergence from 3.1875271466585567e-03 to 3.1875271466585667e-03 seconds.

Simulation stopped by user.
Total elapsed time: 146.587 seconds.

Files loaded:
C:\Users\German\Documents\placa_prueba_bq24780s\Simulaciones\modulo_descarga\modulo_carga_descarga_ac_imp.net
C:\Users\German\AppData\Local\LTspice\lib\cmp\standard.dio
C:\Users\German\AppData\Local\LTspice\lib\cmp\standard.bjt
C:\Users\German\Documents\placa_prueba_bq24780s\Simulaciones\modulo_descarga\lmx58_lm2904.lib
C:\Users\German\Documents\placa_prueba_bq24780s\Simulaciones\modulo_descarga\OPAx188.lib

