LTspice 24.1.9 for Windows
Circuit: C:\Users\German\Documents\LTspice\modulo_descarga.net
Start Time: Tue Aug 19 21:33:53 2025
solver = Normal
Maximum thread count: 12
tnom = 27
temp = 27
method = trap
Model "pmosd": Oxide thickness thinner than recommended for a level 1 MOSFET.
Instance "m1:M2": Length shorter than recommended for a level 1 MOSFET.
Direct Newton iteration failed to find .op point.  (Use ".option noopiter" to skip.)
Starting Gmin stepping
Gmin = 10
Gmin = 1.07374
Gmin = 0.115292
Gmin = 0.0123794
Gmin = 0.00132923
Gmin = 0.000142725
vernier = 0.5
vernier = 0.25
vernier = 0.125
Gmin = 8.33655e-05
vernier = 0.0625
vernier = 0.03125
vernier = 0.0416667
Gmin = 8.09936e-05
vernier = 0.0555555
Gmin = 7.1533e-05
vernier = 0.074074
vernier = 0.0987653
Gmin = 5.81193e-05
vernier = 0.131687
vernier = 0.175583
Gmin = 4.18231e-05
vernier = 0.23411
Gmin = 2.50365e-05
vernier = 0.312147
vernier = 0.416196
Gmin = 1.07354e-05
vernier = 0.554928
vernier = 0.739903
Gmin = 2.8767e-06
vernier = 0.986537
Gmin = 3.88707e-07
vernier = 1
Gmin = 4.17371e-08
vernier = 0.5
vernier = 0.25
vernier = 0.125
vernier = 0.0625
vernier = 0.03125
vernier = 0.015625
vernier = 0.0078125
vernier = 0.00390625
vernier = 0.00195312
vernier = 0.000976562
Gmin = 5.21714e-08
vernier = 0.000488281
Gmin = 0
Gmin stepping failed

Starting source stepping with srcstepmethod=0
Source Step = 3.0303%
Source Step = 33.3333%
Source Step = 63.6364%
Source Step = 88.6364%
vernier = 0.0625
Source Step = 87.8995%
Starting source stepping with srcstepmethod=1
Source Step = 3.0303%
Source Step = 33.3333%
Source Step = 63.6364%
Source Step = 88.6364%
vernier = 0.0625
Source stepping failed

Pseudo Transient succeeded in finding the operating point at 48.8607 s.
Total elapsed time: 0.838 seconds.

Files loaded:
C:\Users\German\Documents\LTspice\modulo_descarga.net
C:\Users\German\Documents\LTspice\lmx58_lm2904.lib
C:\Users\German\Documents\LTspice\CSD17308Q3.lib

