LTspice 24.1.9 for Windows
Circuit: C:\Users\German\Documents\placa_prueba_bq24780s\Simulaciones\modulo_descarga\modulo_carga_descarga_ac_imp.net
Start Time: Wed Oct 22 20:24:18 2025
solver = Normal
Maximum thread count: 8
tnom = 27
temp = 27
method = trap
Direct Newton iteration failed to find .op point.  (Use ".option noopiter" to skip.)
Starting Gmin stepping
Gmin = 10
Gmin = 1.07374
Gmin = 0.115292
Gmin = 0.0123794
Gmin = 0.00132923
Gmin = 0.000142725
vernier = 0.5
vernier = 0.25
vernier = 0.125
vernier = 0.0625
Gmin = 0.000107463
vernier = 0.03125
vernier = 0.015625
vernier = 0.0078125
vernier = 0.00390625
Gmin = 0.000106422
vernier = 0.00520833
Gmin = 0.000105218
vernier = 0.00694444
vernier = 0.00925925
Gmin = 0.000103274
vernier = 0.0123457
vernier = 0.0164609
Gmin = 0.000100268
vernier = 0.0219478
Gmin = 9.55794e-05
vernier = 0.0292638
vernier = 0.0390184
Gmin = 8.83784e-05
vernier = 0.0520245
vernier = 0.0260122
vernier = 0.0130061
Gmin = 8.47352e-05
vernier = 0.0173415
vernier = 0.023122
Gmin = 8.12941e-05
vernier = 0.0308293
Gmin = 7.601e-05
vernier = 0.0411057
vernier = 0.0548076
Gmin = 6.81027e-05
vernier = 0.0730768
vernier = 0.0974357
Gmin = 5.7254e-05
vernier = 0.129914
Gmin = 4.32653e-05
vernier = 0.173219
vernier = 0.230959
Gmin = 2.74571e-05
vernier = 0.307945
vernier = 0.410593
Gmin = 1.34841e-05
vernier = 0.547457
Gmin = 4.35606e-06
vernier = 0.729942
vernier = 0.973256
Gmin = 7.29235e-07
vernier = 1
Gmin = 7.9571e-08
vernier = 0.5
vernier = 0.25
vernier = 0.125
vernier = 0.0625
vernier = 0.03125
vernier = 0.015625
vernier = 0.0078125
vernier = 0.00390625
vernier = 0.00195312
vernier = 0.000976562
Gmin = 9.94637e-08
vernier = 0.000488281
Gmin = 0
Gmin stepping failed

Starting source stepping with srcstepmethod=0
Source Step = 3.0303%
vernier = 0.25
Source Step = 0.772372%
Source Step = 0.801965%
Source Step = 0.831558%
Source Step = 0.861151%
Source Step = 0.890743%
vernier = 0.00146484
Source Step = 0.926255%
Source Step = 0.970644%
Source Step = 1.01503%
Source Step = 1.05942%
Source Step = 1.10381%
vernier = 0.00219727
Source Step = 1.15486%
Source Step = 1.22144%
Source Step = 1.28803%
Source Step = 1.35461%
Source Step = 1.42119%
vernier = 0.0032959
Source Step = 1.49444%
Source Step = 1.59431%
Source Step = 1.69419%
Source Step = 1.79406%
Source Step = 1.89394%
vernier = 0.00494385
Source Step = 1.99881%
Source Step = 2.14862%
Source Step = 2.29844%
Source Step = 2.44825%
Source Step = 2.59806%
Source Step = 2.74788%
vernier = 0.00741577
Source Step = 2.9726%
Source Step = 3.19732%
Source Step = 3.42204%
Source Step = 3.64676%
Source Step = 3.87148%
vernier = 0.0111237
Source Step = 4.19732%
Source Step = 4.5344%
Source Step = 4.87148%
Source Step = 5.20856%
Source Step = 5.54565%
vernier = 0.0166855
Source Step = 6.01756%
Source Step = 6.52318%
Source Step = 7.0288%
Source Step = 7.53442%
Source Step = 8.04004%
vernier = 0.0250282
Source Step = 8.72263%
Source Step = 9.48106%
Source Step = 10.2395%
Source Step = 10.9979%
Source Step = 11.7564%
vernier = 0.0375423
Source Step = 12.7423%
Source Step = 13.88%
Source Step = 15.0176%
Source Step = 16.1553%
Source Step = 17.2929%
vernier = 0.0563135
Source Step = 18.715%
Source Step = 20.4214%
Source Step = 22.1279%
Source Step = 23.8344%
Source Step = 25.5408%
vernier = 0.0844703
Source Step = 27.5886%
Source Step = 30.1483%
Source Step = 32.708%
Source Step = 35.2677%
Source Step = 37.8274%
vernier = 0.126705
Source Step = 40.7711%
Source Step = 44.6106%
Source Step = 48.4502%
Source Step = 52.2898%
Source Step = 56.1293%
vernier = 0.190058
Source Step = 60.3528%
Source Step = 66.1122%
Source Step = 71.8715%
Source Step = 77.6308%
Source Step = 83.3902%
vernier = 0.285087
Source Step = 89.4375%
Source Step = 89.4577%
Starting source stepping with srcstepmethod=1
Source Step = 3.0303%
Source Step = 33.3333%
Source Step = 56.0606%
Source Step = 58.3333%
Source Step = 60.2273%
Source Step = 62.1212%
Source Step = 64.0152%
Source Step = 64.1957%
Source Step = 64.2253%
Source Step = 64.2549%
Source Step = 64.2844%
Source Step = 64.314%
Source Step = 64.3436%
vernier = 0.00146484
Source Step = 64.388%
Source Step = 64.4324%
Source stepping failed

Pseudo Transient succeeded in finding the operating point at 4.33947 s.
Total elapsed time: 8.144 seconds.

Files loaded:
C:\Users\German\Documents\placa_prueba_bq24780s\Simulaciones\modulo_descarga\modulo_carga_descarga_ac_imp.net
C:\Users\German\AppData\Local\LTspice\lib\cmp\standard.dio
C:\Users\German\AppData\Local\LTspice\lib\cmp\standard.bjt
C:\Users\German\Documents\placa_prueba_bq24780s\Simulaciones\modulo_descarga\OPAx188.lib
C:\Users\German\Documents\placa_prueba_bq24780s\Simulaciones\modulo_descarga\lmx24_lm2902.lib

